  94
       -127.85871873
 C         -1.2359237459        5.3273621106       -1.9896757416
 C         -1.6085347781        3.9617040631       -1.4980257895
 C         -2.4522126309        3.8044699195       -0.4041839621
 C         -2.7670206068        2.5527706517        0.0812785873
 C         -2.2561269962        1.4086259718       -0.5330738128
 N         -2.5739415016        0.1378327101       -0.0399587020
 C         -3.9128754126       -0.1943243767        0.2023701179
 C         -4.9746111039        0.5930907577       -0.2446934117
 C         -6.2798271208        0.2459456217        0.0433259545
 C         -6.5828411955       -0.8988390972        0.7683743137
 C         -7.9997933090       -1.2552174671        1.1022372303
 C         -5.5261688706       -1.7005703892        1.1816885013
 C         -4.2181255017       -1.3616552110        0.9047773085
 C         -1.7030151652       -0.9522014901       -0.3522307202
 C         -2.1368981877       -1.7693971690       -1.3962812004
 C         -1.4308067421       -2.8820838609       -1.7979341332
 C         -0.2493333489       -3.1794361948       -1.1478713900
 C          0.1932535082       -2.3681242714       -0.1210033930
 C         -0.5050722203       -1.2471308104        0.3232114958
 C          0.0269454757       -0.4518597278        1.5183270772
 C          0.5580818832        0.9108691334        1.0429509438
 C         -0.0951902744        2.0792627463        1.4315912053
 C          0.3553818593        3.3439070243        1.1043779234
 C          1.5013898635        3.4933028337        0.3491344648
 C          2.1763237924        2.3586916363       -0.0442380815
 C          1.7354072751        1.0799063143        0.2950203030
 N          2.6034995739        0.0201490222       -0.1168378267
 C          2.3264023937       -0.6575646541       -1.3070762063
 C          1.5123496756       -0.0875319909       -2.2809417051
 C          1.2054858924       -0.7834256100       -3.4335468286
 C          1.7188233256       -2.0518006831       -3.6658533565
 C          1.3633045273       -2.8130977785       -4.9067184410
 C          2.5544397755       -2.6062627499       -2.7030790693
 C          2.8499772518       -1.9308994156       -1.5376062981
 C          3.9169622133        0.1096163910        0.3595095018
 C          5.0231088294       -0.2307160480       -0.4192055316
 C          6.3005085959       -0.1572518612        0.1005669399
 C          6.5298186971        0.2699122787        1.4014860630
 C          7.9188973078        0.3612381258        1.9572790197
 C          5.4296892295        0.6448189414        2.1631471752
 C          4.1483025271        0.5704409894        1.6581364207
 C         -1.0987538758       -0.2977028216        2.5664423186
 C         -1.4771720581       -1.6320068481        3.2055913113
 C         -0.3025739125       -2.1964953225        3.9897896357
 C          0.8435121752       -2.4210650889        3.0149513514
 C          1.1950818690       -1.1282298289        2.2795262838
 C         -1.4320426048        1.5603874062       -1.6431175305
 C         -1.1056235909        2.8200350744       -2.1058778660
 H         -2.0545269421        6.0294330843       -1.8470667067
 H         -0.9719861330        5.3023469540       -3.0443988702
 H         -0.3733728451        5.6987762163       -1.4350028329
 H         -2.8617858440        4.6798740382        0.0803188153
 H         -3.4120866325        2.4537958773        0.9417951640
 H         -4.7813617842        1.4739641134       -0.8366166752
 H         -7.0816203430        0.8752337722       -0.3167946663
 H         -8.2604496327       -0.8731203296        2.0902244754
 H         -8.1341713712       -2.3346990129        1.1150872732
 H         -8.6888065086       -0.8220400445        0.3809313771
 H         -5.7304792815       -2.6084742190        1.7315378622
 H         -3.4217608238       -2.0126427390        1.2226254736
 H         -3.0629501961       -1.5102405925       -1.8899913453
 H         -1.7958542339       -3.4999457283       -2.6048304737
 H          0.3331049495       -4.0412321303       -1.4364430517
 H          1.1220381566       -2.6360412546        0.3474678401
 H         -0.9897209833        2.0201672552        2.0237874168
 H         -0.1928921257        4.2089000071        1.4451345476
 H          1.8693711339        4.4714167684        0.0779306248
 H          3.0870799576        2.4427400627       -0.6203917881
 H          1.1332757145        0.9099860834       -2.1290287840
 H          0.5650873503       -0.3262797715       -4.1753679344
 H          1.1498959149       -2.1357367530       -5.7304853608
 H          2.1706147282       -3.4808864919       -5.1987742625
 H          0.4728708688       -3.4175675859       -4.7291827552
 H          2.9724923430       -3.5899952752       -2.8659040322
 H          3.4849090196       -2.3908997325       -0.7948903540
 H          4.8862359304       -0.5401759805       -1.4435265673
 H          7.1383272010       -0.4288297722       -0.5260607442
 H          7.9304443811        0.0949571308        3.0121582181
 H          8.2951519746        1.3809247561        1.8653951079
 H          8.5956728855       -0.2985124720        1.4197102918
 H          5.5794016733        0.9991253887        3.1732838913
 H          3.3157891889        0.8812823488        2.2681502419
 H         -0.7476055385        0.3618475907        3.3623919767
 H         -1.9881089996        0.1376969540        2.1192698465
 H         -2.3390442061       -1.4833219394        3.8603403366
 H         -1.7548769595       -2.3513981252        2.4352973156
 H         -0.0019744499       -1.4917870890        4.7680340404
 H         -0.5790513189       -3.1353167773        4.4745193522
 H          1.7323040578       -2.7702357092        3.5472628871
 H          0.5475314864       -3.1980139778        2.3112848250
 H          1.5260028624       -0.4057499509        3.0299843435
 H          2.0371369442       -1.3119893973        1.6187027644
 H         -1.0628904854        0.6810673844       -2.1461462067
 H         -0.4602065914        2.9188759798       -2.9679712606
