  52
        -89.84120754
 N          5.9698927543        1.8419531043        0.8906824686
 C          4.9931967874        1.2840946259        0.6361672884
 C          3.7940609031        0.6484029744        0.3152011118
 C          2.5793807459        1.2567178091        0.6127432649
 C          1.3738868244        0.6373299444        0.3415844318
 N          0.1716421653        1.2225827983        0.7339780126
 C         -0.9002211260        0.5434948584        1.2962421591
 C         -0.9120419632       -0.6796376813        1.9481086172
 C         -2.1286001604       -1.1528715535        2.4087830350
 C         -3.2997752581       -0.4132516959        2.2529807296
 C         -3.2833836523        0.8395573199        1.6704281171
 C         -2.0723353107        1.3317369809        1.1983448806
 C         -1.6745845896        2.5621584270        0.5917700070
 N         -2.3762193446        3.6370577394        0.2770506498
 C         -1.7564921601        4.6299515722       -0.3241203897
 C         -0.4070821481        4.5977758974       -0.6744197610
 C          0.3689676763        3.5012742477       -0.3216308162
 C         -0.2703326142        2.4642793010        0.3344060954
 C          1.3719052539       -0.6464707725       -0.3314486421
 N          0.1678298189       -1.2257331331       -0.7268219003
 C         -0.8985641013       -0.5395615646       -1.2909689101
 C         -0.9004705545        0.6837582996       -1.9424466253
 C         -2.1128318900        1.1657877430       -2.4047984595
 C         -3.2893821557        0.4339199530       -2.2515502331
 C         -3.2826310574       -0.8199606641       -1.6710249372
 C         -2.0757483373       -1.3209010689       -1.1974649237
 C         -1.6862712118       -2.5555779795       -0.5943156525
 N         -2.3940831276       -3.6287250859       -0.2876187886
 C         -1.7806699396       -4.6288954985        0.3078202201
 C         -0.4319418444       -4.6059958022        0.6612389011
 C          0.3503112605       -3.5105824380        0.3182546722
 C         -0.2819867218       -2.4664014171       -0.3330920519
 C          2.5756439945       -1.2691766488       -0.6031727048
 C          3.7920443018       -0.6632430444       -0.3082843857
 C          4.9893492142       -1.2990190483       -0.6366642750
 N          5.9659948177       -1.8562844157       -0.8928667299
 H          2.5847298130        2.2087377522        1.1243111964
 H         -0.0020140133       -1.2403593099        2.1037699599
 H         -2.1670330024       -2.1113019467        2.9035002511
 H         -4.2307897183       -0.8253276574        2.6098072244
 H         -4.1788688637        1.4320022275        1.5765406904
 H         -2.3612152994        5.5007137960       -0.5348389173
 H          0.0365720889        5.4370531231       -1.1846325422
 H          1.4247904435        3.4761354202       -0.5475244334
 H          0.0139886145        1.2376990061       -2.0967923772
 H         -2.1434483795        2.1248296420       -2.8988539325
 H         -4.2169542759        0.8528542085       -2.6090770658
 H         -4.1822783668       -1.4066805741       -1.5802475534
 H         -2.3899918023       -5.4982900117        0.5105844076
 H          0.0062379520       -5.4513047813        1.1662006694
 H          1.4056596243       -3.4921682413        0.5467385706
 H          2.5781360306       -2.2210426766       -1.1150399395
