79
 energy: -123.404308964041 gnorm: 0.000057611970 xtb: 6.7.1 (edcfbbe)
C           10.09921416274964       -0.20869727897172        0.03333310949462
C            9.40691362445446        0.15669949449030       -1.10989183339857
C            8.02273157749968        0.15415867878561       -1.11524801203291
C            7.33353182161421       -0.21846908769932        0.03162900249846
N            5.90702459908204       -0.22354869796845        0.03098044074405
C            5.22023479668562        0.83075265222040        0.60022137768566
C            5.90083910202052        1.91221027844613        1.15676671948679
C            5.21122568530827        2.93704525035646        1.77672942652913
C            3.82821500002433        2.88252602258395        1.87028011155411
C            3.13516057988358        1.82925221857118        1.30668288147925
C            3.80700209139839        0.80754811956373        0.63245128519383
N            3.11921343311802       -0.23586780593043        0.03448587520032
C            1.71015715165737       -0.24477318057956        0.04236054183311
C            1.00041033009683       -1.29939471344164        0.65305493020792
C           -0.36104314130414       -1.29101730664425        0.67785100827255
C           -1.11834188523535       -0.23081155726932        0.09201630312501
C           -2.51844119366606       -0.31512313607907        0.16489556806989
N           -3.14345670354240       -1.46468733787570        0.48063727482161
C           -4.44850299891595       -1.24208745745319        0.34029752339253
C           -5.50855049548604       -2.18508650820449        0.49791770085909
C           -5.24017562948873       -3.52195797290557        0.79820315239600
C           -6.26479922853727       -4.43625055838271        0.90571125572479
C           -7.57387337198607       -4.01326985251374        0.70064616992093
C           -7.85177521404613       -2.69501114820421        0.41007575110283
C           -6.83580011150619       -1.73073445028767        0.30929464604236
C           -7.09719882517575       -0.32956354865783        0.04701508649241
C           -8.40113041841068        0.16957943971345       -0.03520285085456
C           -8.67067448689746        1.50464632301226       -0.23688345344520
C           -7.61776765092307        2.41701363576667       -0.34414517731495
C           -6.32467824032270        1.97533408998371       -0.27987979969289
C           -6.01678243311629        0.60648772534903       -0.10683658083146
C           -4.70679209655055        0.10153896622173       -0.03038914839825
N           -3.46102933254054        0.68825121911028       -0.14575763494604
C           -3.15973582514454        2.02467838317580       -0.43370201326603
C           -2.47175465253396        2.80063425156822        0.50145001502497
C           -2.15501777024249        4.11297608573066        0.20955793435981
C           -2.51623671437352        4.66672222227740       -1.00969031353275
C           -3.19954482406753        3.89794375897995       -1.94145398683026
C           -3.52091738404816        2.58421326155996       -1.66139209082977
C           -0.38079922759589        0.79553502626443       -0.56602765182928
C            0.98506605950813        0.78856554326366       -0.57567930194268
C            3.81473340102134       -1.26978109089412       -0.57123712964354
C            3.14997133697370       -2.29229163320593       -1.25122588701685
C            3.85066856623204       -3.33799663823778       -1.81949289390612
C            5.23404344352304       -3.38321908538551       -1.72564482323993
C            5.91651630002499       -2.35570828567036       -1.10218577674573
C            5.22810127316086       -1.28167070129487       -0.54101511142495
C            8.02389660130217       -0.58621606169933        1.17932830640932
C            9.40807692318915       -0.57895657338268        1.17568576735253
H           11.17862362892904       -0.20494697696689        0.03399071351079
H            9.94408952356033        0.44590412630234       -2.00040359981919
H            7.47253412483478        0.43698552280242       -2.00035544679918
H            6.97728542083382        1.94182137880208        1.10450976607265
H            5.75512424286698        3.76607582442297        2.20114562145679
H            3.28540208114808        3.66103665279739        2.38305106724736
H            2.06156638934408        1.78663681881843        1.39037889362107
H            1.55190922077302       -2.09624396020686        1.13155907401798
H           -0.91267913597064       -2.08088980686936        1.16194887159670
H           -4.20873657741319       -3.81058423285015        0.93440972016411
H           -6.05647883387790       -5.47031140672713        1.13864881128898
H           -8.38508324160134       -4.72460602510232        0.76989875907095
H           -8.88237778898112       -2.41669304156872        0.25443137987390
H           -9.23754990783597       -0.50315725924292        0.07342546107118
H           -9.69313472597333        1.84830766333917       -0.29438032850159
H           -7.82499451427754        3.47011635103426       -0.47150804338266
H           -5.51955652908799        2.68967890223970       -0.34011638333835
H           -2.19333441649090        2.35925361126073        1.44750760272123
H           -1.62752908764998        4.70934312864323        0.93948168372915
H           -2.26657588836706        5.69266165165231       -1.23429913445401
H           -3.47881017692179        4.32302423299988       -2.89451017204853
H           -4.04925750866115        1.97697557527245       -2.38289113453630
H           -0.90113941038060        1.56596211894927       -1.11015081443427
H            1.52383457940426        1.56598651428466       -1.09945603017165
H            2.07613257235664       -2.25721727490550       -1.33559357351274
H            3.31308998541893       -4.11794141174982       -2.33556224061524
H            5.78369492525667       -4.20697616113456       -2.15288146669445
H            6.99318245224858       -2.37762352097879       -1.05065728354177
H            7.47457240823104       -0.87303247946502        2.06367728761738
H            9.94615062791997       -0.86449538473962        2.06682609996032
