79
 energy: -123.404248821230 gnorm: 0.000070496646 xtb: 6.7.1 (edcfbbe)
C           10.09600349262465       -0.34160110092860        0.16425434275543
C            9.43071301134717       -0.01911280565078       -1.00755533251056
C            8.04693815359738       -0.00567287576959       -1.04032346096780
C            7.33148284798386       -0.31805692160764        0.10821771876925
N            5.90485538184266       -0.30585641183738        0.07980431962524
C            5.22313337475863        0.80728366793801        0.52968784824211
C            5.91014720200691        1.92802401002469        0.99291701809140
C            5.22484412906897        3.01732139028631        1.49688776367964
C            3.83981940623421        2.98995633631567        1.56852256712820
C            3.14125450363800        1.89524877590288        1.09804484680763
C            3.80941984289152        0.80441837929815        0.53826032788106
N            3.11803516617750       -0.28616506860903        0.03510053810971
C            1.70917846797234       -0.28275874107611        0.02861929138305
C            0.98378566124184       -1.27216385399980        0.72453572160017
C           -0.37760403197382       -1.24420044893926        0.74311026722112
C           -1.11817662831149       -0.22528154530261        0.07016054826041
C           -2.51928344362538       -0.27053324140690        0.15939057766992
N           -3.17048203854432       -1.37823152220458        0.55890078265456
C           -4.47084906368349       -1.12817359667835        0.41968845936192
C           -5.55357758612169       -2.02910581697986        0.65107321844961
C           -5.31733276164874       -3.35269538695150        1.02751413111597
C           -6.36476672456329       -4.23012794213812        1.20131144430430
C           -7.66446343261694       -3.78437264149422        0.98517443884605
C           -7.91071978197573       -2.47792340849380        0.62164799192060
C           -6.87054730519868       -1.54965642778231        0.45389984473662
C           -7.09717637301972       -0.15876863965582        0.11514598551141
C           -8.38776124530909        0.37406484929867        0.03586219026142
C           -8.62392081636718        1.70201308992044       -0.24123579311875
C           -7.54819534135176        2.57263811698466       -0.43327522903763
C           -6.26707252001788        2.09675143946048       -0.37213934981821
C           -5.99416853248732        0.73278534285344       -0.12004391698593
C           -4.69749307924300        0.19527744475826       -0.03559450579021
N           -3.43742871932839        0.73633300131165       -0.20796459412040
C           -3.09731853971157        2.04389244761078       -0.57291641008251
C           -2.35148065263612        2.83813751433660        0.30094518080030
C           -1.99210893047335        4.11972155510002       -0.06748826142735
C           -2.36778739229924        4.62547659604135       -1.30311331040855
C           -3.10867596794036        3.83882082317553       -2.17404631965686
C           -3.47226390616462        2.55494913000621       -1.81762393437050
C           -0.36616418699670        0.72529355297654       -0.67894390009628
C            0.99939107400461        0.69837084435141       -0.68507824860315
C            3.81023466303710       -1.38077502609649       -0.45755371285689
C            3.14420954482779       -2.45459879216523       -1.05174118471478
C            3.84131089331386       -3.55635331230963       -1.50741382843013
C            5.22237667988032       -3.60767220324573       -1.38596546502939
C            5.90732010210454       -2.53400370692566       -0.84882471594275
C            5.22255499691100       -1.40572729158517       -0.40116558600651
C            7.99437722481207       -0.64213396024805        1.28462654849112
C            9.37839660976958       -0.65235243613239        1.30800440289332
H           11.17516287240889       -0.35085448376903        0.18593814571595
H            9.98877921204272        0.22381449612674       -1.89902300555014
H            7.51723538420847        0.24431778328245       -1.94751483350313
H            6.98783411654604        1.93662127946452        0.96104818256374
H            5.77314758668106        3.87659786139701        1.84945684669572
H            3.29929919088096        3.82110805937136        1.99351920785206
H            2.06599199493546        1.87499442041689        1.16668009110893
H            1.52322233436423       -2.03168662197682        1.27240247671668
H           -0.94114687939568       -1.98177629890089        1.29173343303423
H           -4.29231662469782       -3.66127763548082        1.16813191037699
H           -6.18138285254693       -5.25393319686273        1.49304326980243
H           -8.49318453480362       -4.46846028550011        1.10383833377212
H           -8.93515759199285       -2.18113265503962        0.45935836089458
H           -9.23987664016367       -0.26453919210511        0.20942422456392
H           -9.63708714554445        2.07304840756187       -0.29307993097929
H           -7.72794086554150        3.62149881316033       -0.62249221155272
H           -5.44376720725158        2.78152431450697       -0.49585992256768
H           -2.06330276100151        2.43491977166865        1.26102542506679
H           -1.41958537478503        4.73017396074956        0.61537043032639
H           -2.08461288703228        5.62753230019276       -1.58771985599170
H           -3.39934647131782        4.22588202515607       -3.13985118981286
H           -4.04407595482292        1.93387150302235       -2.49270743178087
H           -0.87622391410069        1.44760588390791       -1.29444313382211
H            1.54980539800376        1.41630636434258       -1.27718886522429
H            2.07252205765396       -2.41539856032083       -1.15876067819863
H            3.30264733390163       -4.37448027463923       -1.95921379117520
H            5.76846250104644       -4.47368013165497       -1.72523221594797
H            6.98291044723177       -2.56081868178553       -0.77866806634885
H            7.42421228163328       -0.88245472050476        2.16960128569028
H            9.89547292880177       -0.90425572321973        2.22143539805877
