93
 energy: -143.135352239651 gnorm: 0.000122683146 xtb: 6.7.1 (edcfbbe)
C            8.62483010173901        0.31440937484088        1.41359536707291
C            7.98068436304308       -0.43184953474265        0.22795513129391
C            9.06639667973522       -0.86878031638298       -0.77589952042404
C            7.28137151425206       -1.66613780181566        0.75461291297556
C            8.00831316738709       -2.63196452655900        1.43752741141504
C            7.41314966237508       -3.77114480130834        1.94830157931494
C            6.04818919258194       -3.96222419005948        1.78662495209567
C            5.30124877880105       -3.02440521930772        1.11140076127254
C            5.90280035135839       -1.87356959471354        0.57825283273817
N            5.12901256618685       -0.95826186797420       -0.10151326536831
C            3.74433131609540       -1.23405727635255       -0.29541476990435
C            2.79025865487439       -0.65583327695428        0.54388767449574
C            1.45397909280780       -0.91315552073473        0.35177161880236
C            1.01753950462130       -1.74707982699723       -0.69453227677008
C           -0.37568117155676       -2.08448312360853       -0.91752792094196
O           -0.68120640332590       -3.18632799912428       -1.47478886161392
C           -1.42249848098731       -1.15988782490615       -0.51154569936460
C           -2.72174445121911       -1.65940504016525       -0.30487816386250
C           -3.76970470897281       -0.81447167362043        0.00733908991468
N           -5.05177007896935       -1.34485628819014        0.22384184198725
C           -5.71907355636926       -2.20268770494315       -0.62538728675819
C           -5.33598714305417       -2.69038662801169       -1.86800674396383
C           -6.21680602699328       -3.52351239440873       -2.53230977947173
C           -7.45359258176307       -3.85879656910826       -1.98551145695590
C           -7.84907836702768       -3.35917419201971       -0.75798043287117
C           -6.98123816176011       -2.52266403987466       -0.07083936766328
C           -7.06233095132378       -1.82550335873951        1.18490679417446
C           -8.02807066842322       -1.75446573309498        2.17845660969657
C           -7.77014373539710       -0.98561932061671        3.29894342917216
C           -6.56233974746946       -0.30610792750832        3.44019711365967
C           -5.58533510298770       -0.36083319572979        2.46355351337894
C           -5.84783197324860       -1.11219759414895        1.32538360200970
C           -3.56127101643322        0.56120720434478        0.12665180047758
C           -2.28346921738930        1.06994897734194       -0.10837901296642
N           -2.07526437639887        2.45977721908531       -0.07799501714878
C           -2.78984488806900        3.39555214320430       -0.79703425646084
C           -3.84853123225798        3.21462383064132       -1.67716388446218
C           -4.38100008490190        4.33613097527469       -2.28533951826799
C           -3.87363344775472        5.60916796590908       -2.03444349530181
C           -2.80531133554732        5.79347559330030       -1.17613819637594
C           -2.25310834757617        4.68259328024461       -0.55434936014800
C           -1.15580893854836        4.50064732658425        0.35744425935640
C           -0.26075987959135        5.36981737215409        0.96512824335991
C            0.68699261149185        4.84903164588252        1.82707022808238
C            0.73703974582942        3.48343266846570        2.09871205324136
C           -0.14580304147117        2.59940867292664        1.50782199947244
C           -1.08162526903497        3.11199507344117        0.61982451806579
C           -1.22976116033973        0.23122957348583       -0.43086252762867
C            2.00164503303308       -2.36327448400344       -1.49584555383638
C            3.33598524884346       -2.10353295195709       -1.30974834665425
C            5.65640697675904        0.20736794879487       -0.61369255437812
C            4.81786339579878        1.10303662780452       -1.29546542017317
C            5.31315519135972        2.27673777818411       -1.81547709647043
C            6.65963714151140        2.58041737155012       -1.67255628835779
C            7.49259323801389        1.69618901686175       -1.01147772076343
C            7.02227268032260        0.50580029141885       -0.47339217239250
H            9.32812171684030       -0.32676534647040        1.93605623462916
H            9.15754579149693        1.19569411714228        1.06964327669306
H            7.85592989956718        0.62841928236145        2.11697755516041
H            8.61024404836168       -1.40132754992149       -1.60832489791799
H            9.59691961015246       -0.00658731289880       -1.16842171308861
H            9.78747210423168       -1.52667552197543       -0.30022232074732
H            9.06921569120374       -2.49734062938735        1.57868799021773
H            8.00782834102049       -4.50298747658731        2.47303188184521
H            5.56707097999303       -4.84120343382777        2.18799899766336
H            4.23961280058303       -3.16997011556853        0.98847985069775
H            3.11481986528117       -0.01799368335672        1.35360853152619
H            0.73023746034456       -0.50721150547774        1.04122080171840
H           -2.87553102127399       -2.72579509528057       -0.37394464146560
H           -4.38186047760106       -2.43047194631825       -2.30115425872640
H           -5.93871606552337       -3.92089699293740       -3.49737695537459
H           -8.11265322999880       -4.51486048744345       -2.53463865960101
H           -8.81303984266989       -3.61052712911436       -0.34207630043317
H           -8.95855556762249       -2.29228839953835        2.07732347264010
H           -8.50987288076859       -0.91643318170233        4.08272270385764
H           -6.38285980909834        0.27306849994139        4.33401659484301
H           -4.64480230892793        0.15361873274615        2.58828847005286
H           -4.37792099853565        1.22113892546546        0.37072148046559
H           -4.23660812065756        2.22997054482749       -1.88930806283677
H           -5.20628732068347        4.22161172034014       -2.97264801246350
H           -4.31884484038940        6.46119856151328       -2.52652940657976
H           -2.40499988812794        6.77938186784135       -0.99400242784154
H           -0.30847634891592        6.43050950289401        0.77005050710324
H            1.39468123754225        5.50882506629002        2.30681223405380
H            1.47711821636722        3.10868834990096        2.79034133712197
H           -0.11726962218783        1.54542802389047        1.73582040739122
H           -0.27497933347786        0.66200385598967       -0.68994806962238
H            1.66891470013570       -3.03740607280265       -2.27176246601084
H            4.07897137080597       -2.56488955130838       -1.94438904215104
H            3.77335144091907        0.86170224373869       -1.41268680444003
H            4.65112347092962        2.95364406556545       -2.33377202107892
H            7.05770546231924        3.49795432078834       -2.07784081879679
H            8.53785485787887        1.94523181682176       -0.91724710790497
