  93
       -143.07414494
 C          8.4925865077        0.6790451542        1.1684358364
 C          7.9342151631       -0.3416745595        0.1584753150
 C          9.0843860788       -0.9845720667       -0.6391470910
 C          7.2056773391       -1.4289249194        0.9200275493
 C          7.8934833193       -2.2038714192        1.8431807276
 C          7.2744680689       -3.2136445442        2.5573104429
 C          5.9283390125       -3.4714840850        2.3489072282
 C          5.2196699174       -2.7187697949        1.4405453029
 C          5.8413380054       -1.6885981754        0.7205234387
 N          5.1016464839       -0.9500633131       -0.1751957030
 C          3.7192540626       -1.2506128908       -0.3425465032
 C          2.7759395173       -0.6986050314        0.5244904121
 C          1.4401254850       -0.9753261822        0.3583012654
 C          0.9971415363       -1.7990489212       -0.6914749207
 C         -0.3993836535       -2.1368586827       -0.9101886282
 O         -0.7105434350       -3.2228309083       -1.4739564279
 C         -1.4347218428       -1.2013167891       -0.4957090655
 C         -2.7498800452       -1.6795559073       -0.3523819890
 C         -3.7869318768       -0.8243900603       -0.0308851960
 N         -5.0830101360       -1.3367053769        0.1123585082
 C         -5.7153259309       -2.1698149457       -0.7856774051
 C         -5.2730172941       -2.6423804086       -2.0143913551
 C         -6.1288891243       -3.4509726524       -2.7382503428
 C         -7.3973393737       -3.7768830856       -2.2640138818
 C         -7.8516504277       -3.2906150770       -1.0516647336
 C         -7.0099587868       -2.4790683519       -0.3057721183
 C         -7.1485245716       -1.8009845305        0.9550099243
 C         -8.1652130621       -1.7309134039        1.8951317742
 C         -7.9562896880       -0.9863444557        3.0417867533
 C         -6.7473405746       -0.3308369512        3.2609143264
 C         -5.7197937804       -0.3850565110        2.3379573726
 C         -5.9320849281       -1.1100985876        1.1725934476
 C         -3.5510462329        0.5372229313        0.1732758850
 C         -2.2546517514        1.0228997189        0.0038474926
 N         -2.0074900549        2.3996889045        0.1238826205
 C         -2.6872730086        3.4025246743       -0.5323868734
 C         -3.7430237305        3.3142657292       -1.4298155161
 C         -4.2368993712        4.4901816900       -1.9619202761
 C         -3.6946131818        5.7271168448       -1.6204784179
 C         -2.6286086468        5.8201631758       -0.7456087719
 C         -2.1141982772        4.6532211331       -0.1993735590
 C         -1.0298207119        4.3758586607        0.7025563419
 C         -0.1120299123        5.1724160396        1.3718756026
 C          0.8137630351        4.5646089783        2.1990894020
 C          0.8183475869        3.1831432525        2.3780095781
 C         -0.0881233373        2.3702200096        1.7253547174
 C         -1.0008353619        2.9709921518        0.8694859929
 C         -1.2133215272        0.1794029986       -0.3452099784
 C          1.9707629680       -2.3968633081       -1.5174787929
 C          3.3043139190       -2.1189162688       -1.3539927496
 C          5.6590350358        0.0620801407       -0.9229903447
 C          4.8514620137        0.7822837041       -1.8147705742
 C          5.3786713006        1.7941104857       -2.5844284296
 C          6.7242109371        2.1110087007       -2.4792469745
 C          7.5223576506        1.4095583889       -1.5939625772
 C          7.0192291440        0.3854235188       -0.8042088089
 H          9.1654064890        0.1980922434        1.8725885771
 H          9.0385219873        1.4679535581        0.6590247888
 H          7.6758364648        1.1319410380        1.7274007380
 H          8.6847948160       -1.7036316100       -1.3517594942
 H          9.6431482276       -0.2318657428       -1.1876294002
 H          9.7719467339       -1.5031657081        0.0226925393
 H          8.9428292747       -2.0193291363        2.0148410612
 H          7.8388880128       -3.7959441153        3.2687607741
 H          5.4317602241       -4.2598086133        2.8934929548
 H          4.1739067600       -2.9188504140        1.2727510082
 H          3.1092363716       -0.0625135157        1.3323162480
 H          0.7274348253       -0.5931616298        1.0700236119
 H         -2.9271513247       -2.7352948615       -0.4747355500
 H         -4.2955277456       -2.3880311244       -2.3922109296
 H         -5.8057630276       -3.8371591733       -3.6932555708
 H         -8.0351753203       -4.4138968123       -2.8580065943
 H         -8.8402012049       -3.5327209120       -0.6921014126
 H         -9.0966779625       -2.2519815355        1.7343585491
 H         -8.7358574661       -0.9185016406        3.7854390138
 H         -6.6072482347        0.2288871792        4.1735714073
 H         -4.7784844788        0.1082731663        2.5253745891
 H         -4.3574791111        1.2045112188        0.4274578222
 H         -4.1565282277        2.3582790736       -1.7127993764
 H         -5.0590745107        4.4481296180       -2.6605082342
 H         -4.1111472570        6.6235865315       -2.0544280092
 H         -2.1997298990        6.7781828216       -0.4932861535
 H         -0.1253627375        6.2447650777        1.2493550282
 H          1.5400675272        5.1668347456        2.7243747058
 H          1.5418717315        2.7386373674        3.0455329479
 H         -0.0957064152        1.3039882712        1.8845062158
 H         -0.2489853288        0.6056355903       -0.5676799076
 H          1.6337946342       -3.0697319277       -2.2902215810
 H          4.0441325463       -2.5642432169       -2.0034154235
 H          3.8055481238        0.5332079994       -1.8923416342
 H          4.7411061886        2.3360510283       -3.2660338801
 H          7.1484935081        2.9005780664       -3.0797290771
 H          8.5662738711        1.6734440847       -1.5205689751
