93
 energy: -143.209821651665 gnorm: 0.000047092008 xtb: 6.7.1 (edcfbbe)
C            5.43156533628652        0.88146529188091       -1.19788338433773
C            6.55818627243102        0.34350388237745       -0.29128306228271
C            7.78264679294707        1.24028001462971       -0.47688888827618
C            6.07115381078871        0.31699737548471        1.14822119395990
C            6.47391385325073        1.21115482935826        2.12882642625014
C            6.00167987357248        1.10463272923781        3.42670838138501
C            5.14405902165495        0.07592025858327        3.77446504075423
C            4.73704086297125       -0.83234231284082        2.81414515676087
C            5.16792454598079       -0.69064693745539        1.50112788484955
N            4.79255851231418       -1.62087485210798        0.50421016867198
C            3.49109072560675       -1.85714465431416        0.14147017117726
C            2.42195659448958       -1.28511933280561        0.85245791125245
C            1.12219277848342       -1.46796261309747        0.44974822827195
C            0.81516243070061       -2.22762382553869       -0.68341050896387
C           -0.56041274874472       -2.40303854211713       -1.15168100926593
O           -0.92404486426152       -3.36286484773801       -1.82073219203848
C           -1.51602499539995       -1.31403527894125       -0.79110704753064
C           -2.80291882406114       -1.63787466124094       -0.38218327846669
C           -3.70590245665912       -0.62860546756791       -0.06143481676651
N           -5.00190613308125       -0.94980853888741        0.35733904902195
C           -5.86137872552951       -1.82588103014581       -0.28132515336919
C           -5.68496937923123       -2.53869897253000       -1.45887062387020
C           -6.73051014180374       -3.32976774702023       -1.89688556136093
C           -7.92933939866606       -3.40861148369555       -1.19115167868098
C           -8.11891070799446       -2.68339519029270       -0.03152713897512
C           -7.08254912436399       -1.88097684232196        0.42855317773525
C           -6.94244639767359       -0.99923984369364        1.55454584018481
C           -7.78154864344950       -0.65440466881016        2.60651767679682
C           -7.31715794775737        0.22818095145731        3.56169568308047
C           -6.02838457840093        0.75184237640011        3.48572359563101
C           -5.17547541000942        0.42349680527293        2.44859113470154
C           -5.64551990251866       -0.44273120961155        1.47157101325460
C           -3.31726822195553        0.70417393033234       -0.15698966846606
C           -2.03603390052844        1.03077505374096       -0.59244487955237
N           -1.65941317574363        2.37299942203665       -0.71632533913090
C           -2.39827439029218        3.36470159162683       -1.33811661532534
C           -3.60744330713473        3.27831959841303       -2.01370970730625
C           -4.11771848365358        4.43283219816415       -2.57731503341951
C           -3.44325089640700        5.64827036949525       -2.48409634283740
C           -2.22633356698083        5.73524182309549       -1.83754687641858
C           -1.69343168908065        4.58783524642452       -1.26409576679043
C           -0.46986205910321        4.31410034779135       -0.56257480219459
C            0.60554931966952        5.10538074212530       -0.17907745533487
C            1.64709986893820        4.51833528957232        0.51186275366390
C            1.61659115837408        3.16356136020323        0.83477088305948
C            0.55513038490752        2.35807613675586        0.46691359575211
C           -0.48367691162473        2.93551988939417       -0.24959090651475
C           -1.13593862778319        0.01856206974820       -0.91148609076917
C            1.87482657520823       -2.81471723040485       -1.38253482212693
C            3.17835302090521       -2.62118064026400       -0.99705442471781
C            5.90192617791919       -2.06039992079115       -0.25259444870909
C            6.10766102780873       -3.41185707531268       -0.49844821754495
C            7.22850295736253       -3.82087528513309       -1.19739662965561
C            8.14965922828938       -2.88191386210868       -1.62729112474014
C            7.96180645582478       -1.53844753576071       -1.34636439309233
C            6.84022688329702       -1.10524974064088       -0.65545323859793
H            5.75047455500444        0.85193940110421       -2.23776653404809
H            4.51997205302305        0.29761587436580       -1.10476794913829
H            5.20441575972642        1.91189001848100       -0.93266226626832
H            8.61051645755243        0.90540721822819        0.14409196777165
H            8.09413091360492        1.23610442382033       -1.51827770290807
H            7.53680797216094        2.26714375424000       -0.21883174657747
H            7.16293587429864        2.00500840127456        1.89158675489969
H            6.32079527608696        1.81807512865076        4.17185606007621
H            4.80159301329918       -0.02984932257732        4.79304491540209
H            4.10020934425834       -1.66215304461014        3.08245149631561
H            2.61774394513250       -0.66864704663851        1.71405205134079
H            0.32257959847498       -1.03805645169178        1.03492969720235
H           -3.08567647365599       -2.67565229618336       -0.29325440326932
H           -4.76566278625018       -2.47826210672508       -2.02189075663911
H           -6.61455389067350       -3.89782807857710       -2.80843581611355
H           -8.72138530358472       -4.04072624422123       -1.56499084206141
H           -9.05304436446891       -2.73270936262338        0.50768723566773
H           -8.77399098378257       -1.07413124253707        2.67425647541878
H           -7.95487681715564        0.51164714564060        4.38599603977837
H           -5.68603881831256        1.42739483438065        4.25604943215535
H           -4.17267380120042        0.82150674929391        2.41214130589238
H           -4.01538485180352        1.48611544129794        0.09856533797223
H           -4.13100511914281        2.33960113021528       -2.11415942791494
H           -5.05892158703072        4.38938061616784       -3.10576204616471
H           -3.87646288983971        6.52883623249063       -2.93517131082836
H           -1.69331669568485        6.67255019691489       -1.78215943379662
H            0.62063485885300        6.15846847573481       -0.41664632356154
H            2.49408247092124        5.11572653071251        0.81573798447073
H            2.43796739953695        2.73340769443892        1.38928315997932
H            0.53934073330283        1.31473856487940        0.73726936157612
H           -0.15498600034615        0.26974622568532       -1.28378661281783
H            1.64853353602438       -3.39908650298258       -2.26283397206386
H            3.96971625223275       -3.03904431787539       -1.59823490531414
H            5.39790765156507       -4.13649192870993       -0.12758702565089
H            7.38562171106425       -4.87095276246663       -1.39370443132301
H            9.02707740487339       -3.19589810922443       -2.17278259525375
H            8.70526769094754       -0.83138012028937       -1.67595222422907
