  93
       -143.15545931
 C          4.6306054797        0.8998058436       -1.1971789386
 C          5.8978636690        0.6510618410       -0.3538103481
 C          6.8970772749        1.7650526080       -0.6615757370
 C          5.5134032424        0.6075473618        1.1136994349
 C          5.7694966610        1.6242680684        2.0205387663
 C          5.3942830520        1.5043639331        3.3485804678
 C          4.7899698903        0.3443527629        3.7996043843
 C          4.5364453945       -0.6866016847        2.9133968319
 C          4.8617980111       -0.5421768545        1.5706586289
 N          4.6241961122       -1.5842147144        0.6484194361
 C          3.3563862509       -2.0161538054        0.3335400115
 C          2.2483025324       -1.6223730313        1.0984744572
 C          0.9705241238       -1.9238073701        0.6948148930
 C          0.7335286459       -2.6451425154       -0.4772277485
 C         -0.6359487223       -2.8210357729       -0.9897602256
 O         -1.0208956713       -3.8006021512       -1.6008097547
 C         -1.5155554179       -1.6417794532       -0.7285295533
 C         -2.8443001396       -1.8182679496       -0.3711974637
 C         -3.6393457683       -0.7102202124       -0.0916328479
 N         -4.9720991485       -0.8847139270        0.2876670148
 C         -5.8936412164       -1.6861349491       -0.3592964463
 C         -5.7529227850       -2.4377263189       -1.5170333846
 C         -6.8579641560       -3.1316485345       -1.9724339241
 C         -8.0788162849       -3.0766838839       -1.3036491418
 C         -8.2301717864       -2.3126475254       -0.1637295145
 C         -7.1335705641       -1.6069717992        0.3140695140
 C         -6.9376948686       -0.7230550384        1.4294568328
 C         -7.7642630784       -0.2829406096        2.4545784845
 C         -7.2387609587        0.5615445119        3.4120062755
 C         -5.9035991793        0.9548378707        3.3643442412
 C         -5.0621352321        0.5315528273        2.3530197034
 C         -5.5906497655       -0.2974804947        1.3739837621
 C         -3.1040134286        0.5716684417       -0.1766489109
 C         -1.7802401527        0.7491335361       -0.5668538018
 N         -1.2355182955        2.0328891696       -0.6728279289
 C         -1.8148591681        3.1120935498       -1.3132092905
 C         -3.0214788583        3.1973548428       -1.9932022917
 C         -3.3540586874        4.4079178196       -2.5712003293
 C         -2.5082551015        5.5114902179       -2.4882145965
 C         -1.2935164521        5.4256429282       -1.8383595061
 C         -0.9372754077        4.2190551327       -1.2503380790
 C          0.2281305865        3.7770638030       -0.5366488850
 C          1.4086086754        4.4024877521       -0.1563814154
 C          2.3415720622        3.6784197633        0.5590717479
 C          2.1008858006        2.3524386531        0.9127056099
 C          0.9343404120        1.7105446236        0.5438011007
 C          0.0047766698        2.4219530878       -0.2019215083
 C         -0.9905022598       -0.3593127981       -0.8499974368
 C          1.8346952068       -3.1124378907       -1.1941589943
 C          3.1168273077       -2.7931519613       -0.8108333407
 C          5.7358544031       -1.8260583597       -0.1849283432
 C          6.1677851455       -3.1232984739       -0.4280656556
 C          7.2930933593       -3.3397958968       -1.2012150643
 C          7.9952923300       -2.2605288611       -1.7078602231
 C          7.5779244486       -0.9667297578       -1.4418170602
 C          6.4430902350       -0.7278332927       -0.6827353003
 H          4.8884292106        0.9049398332       -2.2541216426
 H          3.8792604970        0.1348045412       -1.0324585783
 H          4.1967189902        1.8621930984       -0.9368529081
 H          7.8095499705        1.6442171438       -0.0822699128
 H          7.1451279355        1.7629127265       -1.7196995549
 H          6.4573321144        2.7330465083       -0.4363713500
 H          6.2615272573        2.5277970436        1.7001295163
 H          5.5904040038        2.3140661514        4.0347745721
 H          4.5267556254        0.2350244060        4.8406603564
 H          4.1038829115       -1.6124050514        3.2622319035
 H          2.3879332226       -1.0309253674        1.9867820074
 H          0.1342960899       -1.6046167094        1.2989438267
 H         -3.2446361297       -2.8148864361       -0.2807176728
 H         -4.8164818168       -2.4760228507       -2.0517368924
 H         -6.7723103281       -3.7271762149       -2.8690904914
 H         -8.9176999066       -3.6352782590       -1.6907943191
 H         -9.1795701277       -2.2581332880        0.3469109602
 H         -8.7938281650       -0.6034632417        2.5014886621
 H         -7.8642280687        0.9154667605        4.2174728218
 H         -5.5146005413        1.6013363289        4.1369699837
 H         -4.0237059265        0.8267219505        2.3389265196
 H         -3.7189966563        1.4258787770        0.0556210413
 H         -3.6765283187        2.3446249924       -2.0861592697
 H         -4.2893998663        4.4975775349       -3.1030900012
 H         -2.8060589013        6.4405708037       -2.9499757530
 H         -0.6279025635        6.2740505557       -1.7899128537
 H          1.5858825191        5.4357380369       -0.4135228853
 H          3.2672580644        4.1448172070        0.8629560765
 H          2.8405311144        1.8163301959        1.4884194807
 H          0.7560498179        0.6900504811        0.8357522722
 H          0.0231979485       -0.2192843846       -1.1872995869
 H          1.6646951793       -3.6859495712       -2.0927948354
 H          3.9423287337       -3.1059048193       -1.4285870768
 H          5.6260203289       -3.9534012623        0.0006090385
 H          7.6262519305       -4.3478345357       -1.3952889761
 H          8.8780854063       -2.4235653840       -2.3070925591
 H          8.1504165807       -0.1448939518       -1.8399127761
