89
 energy: -134.971951451461 gnorm: 0.000195280451 xtb: 6.7.1 (edcfbbe)
C            4.67065381587602        3.91884124727030        2.55082163535814
C            3.52675231241252        3.21713702774663        1.81869002509295
C            2.35267170204784        3.06473040060328        2.80812091958347
C            3.05108960005779        4.00032611236984        0.60839548731364
C            3.38238060036552        5.31832432786922        0.34069183638365
C            2.90225632837012        5.95709900166338       -0.79133921861194
C            2.10383575622675        5.27376826021917       -1.69152046226786
C            1.76811053054738        3.95554766135605       -1.44951634273395
C            2.21342886999783        3.32905543221715       -0.29065736698444
N            1.92814386047543        1.97607937078878       -0.04073611646142
C            0.63911293022414        1.47030727211615        0.04051890518230
C           -0.48204707081196        2.26283224168663       -0.25684500250955
C           -1.74861352082603        1.74703755469248       -0.17983486972908
C           -1.98862600773527        0.41327511096824        0.21230367868042
C           -3.32987326281415       -0.08507352722134        0.23938357630492
C           -3.67890844806542       -1.41543375434065        0.50112463987902
C           -5.02020471077132       -1.77275076862115        0.48712015248946
C           -5.52029859057754       -3.10147050586049        0.74973616215212
C           -4.68563959938679       -4.21132826616267        0.94654066462433
C           -5.21843274642950       -5.45823892918774        1.19453822442051
C           -6.59213187167743       -5.64309645422793        1.25504459458305
C           -7.43224604325514       -4.55592653453114        1.06034971997631
C           -6.90884190803924       -3.30733973348061        0.81122894004155
N           -5.94831841043607       -0.80263067339943        0.21765184675899
C           -5.59252122522073        0.43642931464735       -0.04934120644844
C           -6.62647613699158        1.42603255222330       -0.35516519687679
C           -7.96244731270801        1.04217247427512       -0.43798088789630
C           -8.93720117466827        1.97731834003715       -0.72754005116457
C           -8.58888572281050        3.30240332183588       -0.93654597648254
C           -7.26072421873537        3.69074212561311       -0.85555739765321
C           -6.28288177573291        2.75889497176001       -0.56672196402157
N           -4.33531033909718        0.80272751325193       -0.03888708110436
C           -0.86359897252864       -0.34720176267385        0.58644093338118
C            0.40463412650031        0.16754302569967        0.51313904687778
C            3.05898266559702        1.25445203172516        0.36627703630965
C            3.91962057636257        1.84356901686546        1.29896942979895
C            5.06038515477990        1.16049030225291        1.70866762023208
C            5.37765242612653       -0.09564386455877        1.22530005820811
C            4.54193787094900       -0.66144966437959        0.27520013798987
C            3.39787979118830        0.01992319902467       -0.19846397220123
C            2.85404468914381       -0.78483510467333       -1.25856764325062
C            1.78524206815898       -0.63940158433710       -2.13764272165156
C            1.53437456718732       -1.64390895114572       -3.04978259531862
C            2.32296704974443       -2.79132214965473       -3.09521863892008
C            3.40461826041051       -2.95007416044322       -2.25152301663445
C            3.67963317195039       -1.93088239714656       -1.35120407813408
N            4.68896435005889       -1.84541448364194       -0.41497017060755
C            5.70829306784020       -2.78684717404157       -0.21098225851556
C            5.97263028467359       -3.25987831826768        1.07097442990097
C            6.98061554292109       -4.18459579093242        1.27106670602893
C            7.72345716983586       -4.65091894113837        0.19917137217783
C            7.45907052411209       -4.18342894835440       -1.07749179424504
C            6.46010133409394       -3.25070097808940       -1.28622564924902
H            4.96835591979546        3.34273282218823        3.42322839504125
H            4.34466493069746        4.89336822372347        2.90566334118270
H            5.53161335865640        4.04767100462652        1.89867260556361
H            1.49834625192623        2.57356837537257        2.35072650887473
H            2.66833572379021        2.47248472696622        3.66455703242296
H            2.03556620329552        4.04479481962496        3.15870852273471
H            4.01960309387931        5.86810193334006        1.01412574440371
H            3.16670251239294        6.98736213711172       -0.97595590088031
H            1.75305596990216        5.76103825258098       -2.58873011361480
H            1.18402912048246        3.39957844274371       -2.16718686952112
H           -0.35517673250310        3.30004479094879       -0.52443487929203
H           -2.59812450221548        2.36852170079298       -0.41677128896077
H           -2.91643677131332       -2.14690753177882        0.70632275023529
H           -3.61285351480245       -4.10298702772339        0.89844647973574
H           -4.55678214373058       -6.30045213483152        1.34184425333354
H           -7.00191409280987       -6.62297225402436        1.44988768402221
H           -8.50407181879508       -4.68928436956080        1.10398364225427
H           -7.55910995545968       -2.45870144504663        0.66204462157716
H           -8.21756916650945        0.00624111769532       -0.27498093708654
H           -9.97245116728495        1.67536534200856       -0.79151576581949
H           -9.35238373845680        4.03260134244850       -1.16220957663185
H           -6.99034955222624        4.72407558107240       -1.01785703474862
H           -5.24469371609572        3.04581750099378       -0.49820509533660
H           -0.98644248691262       -1.35161033105762        0.95980024195750
H            1.23304375787828       -0.43896848948181        0.84189205099672
H            5.72388955044751        1.60751501663648        2.42992576234670
H            6.26878510661726       -0.60395825405849        1.55883753250941
H            1.16006923020717        0.23811789213321       -2.11203267564793
H            0.70644136673201       -1.54488954604522       -3.73557303019802
H            2.08724327660845       -3.56908882367672       -3.80628416415919
H            4.01184585476412       -3.84190774918681       -2.28670756036181
H            5.37702913147666       -2.90914111319600        1.90064282903876
H            7.18112416702189       -4.54903089339429        2.26766473706087
H            8.50653297203238       -5.37659382608389        0.35838341832706
H            8.03939975190766       -4.54068622471416       -1.91519894284025
H            6.26599358552524       -2.86661966375064       -2.27647905441173
