89
 energy: -135.048476102010 gnorm: 0.000043756967 xtb: 6.7.1 (edcfbbe)
C            4.58042784816161        3.27457708238454        3.27115478588899
C            3.46361427241905        2.74648841917186        2.37078176011150
C            2.24299724945962        2.43789566855033        3.26184743088664
C            3.05609062123609        3.75265328820025        1.30782076951597
C            3.42201350417723        5.08938537502789        1.30682104929218
C            3.00777445679610        5.93903017020297        0.29437490416156
C            2.24367983202140        5.45593096808115       -0.75253674683157
C            1.87908160110700        4.12279094696592       -0.77823164190010
C            2.25778459415567        3.28215615799256        0.26044791136695
N            1.93858661700726        1.90928860984808        0.23614075317447
C            0.64112127686745        1.43464431908738        0.23919102058895
C           -0.45202938878613        2.29234233475555        0.05954275964530
C           -1.73668678429822        1.80240020546655        0.04980611110210
C           -2.00074825106765        0.44594533097994        0.24546248404106
C           -3.38191045672620       -0.02848931501737        0.21555323071555
C           -3.79215625286281       -1.21928064705157        0.82102465504637
C           -5.14018514935961       -1.55365004515312        0.72788796721059
C           -5.69827966570252       -2.76976888766912        1.33550566658660
C           -7.03806142420655       -2.78256575273695        1.71829776639958
C           -7.59001256613102       -3.90682621529896        2.30054852208421
C           -6.81406218661902       -5.03715437901540        2.50093334269016
C           -5.48519819934702       -5.03817873062945        2.11064909371287
C           -4.92771919150407       -3.91273365207330        1.53256845212827
N           -6.00215862900145       -0.75997458442943        0.09448454688128
C           -5.53100054684853        0.35688995770209       -0.44846552653689
C           -6.48854911691735        1.22582050889697       -1.14184480262111
C           -7.83067752206086        0.86315395436488       -1.22895210119200
C           -8.73083710585839        1.68446027184522       -1.87994039095607
C           -8.30251541306894        2.87301739573726       -2.44983507627972
C           -6.96778778865198        3.23750597498168       -2.36918230614284
C           -6.06327723989771        2.41989103300175       -1.71970099876266
N           -4.26425005039410        0.74904276707087       -0.41242133436558
C           -0.91669458131597       -0.40015190696738        0.47503157680959
C            0.37293400365215        0.08003645842642        0.47805241911424
C            3.04486400486611        1.09974738134823        0.55900289863529
C            3.86485853606773        1.48618344446299        1.61953842209019
C            4.99026246253710        0.72548542411461        1.92976500277732
C            5.32225060507742       -0.41485599965031        1.22444321754502
C            4.51940770175678       -0.78040843137933        0.15527809096684
C            3.39583471732491       -0.00797256906090       -0.21569254374171
C            2.87605574493281       -0.59575691725521       -1.42150973737826
C            1.82785877430822       -0.28038054516516       -2.27918131727195
C            1.59696843721714       -1.09181461433220       -3.37159527746082
C            2.38468237536872       -2.21406907525717       -3.61491103225116
C            3.44442668666458       -2.53808385391938       -2.79054454812947
C            3.69968142664981       -1.71010361069813       -1.70703627149688
N            4.68263892703774       -1.81303551941744       -0.74399939872682
C            5.69589314660271       -2.78111373474272       -0.69964150873483
C            5.92975916399388       -3.49283172976407        0.47334592093760
C            6.93338228907555       -4.44262962691072        0.51606645438261
C            7.70235803766213       -4.69745894346286       -0.60727007044389
C            7.46822024601267       -3.99264442269083       -1.77634188256455
C            6.47386232631762       -3.03344080721751       -1.82570573232337
H            4.83113727165571        2.53787340447032        4.03031902859443
H            4.24962850902817        4.17083006791342        3.79017043967556
H            5.47200278086734        3.50734673984164        2.69315886506030
H            1.40452464162572        2.05807053133326        2.68493989617671
H            2.51083524127873        1.69069869215183        4.00623894884752
H            1.92185638138225        3.34238945687140        3.77465991086150
H            4.03421286648554        5.48850848545452        2.09921798401468
H            3.29637684181170        6.97919327362933        0.31874922272944
H            1.94270258618408        6.11112730120573       -1.55615173743977
H            1.31826282723110        3.72497543880779       -1.61060146764182
H           -0.29403522648586        3.35319777311384       -0.05229691812031
H           -2.56983769920308        2.47159500832048       -0.09734858961056
H           -3.10278809799646       -1.83219601918817        1.37671223121816
H           -7.62878308905021       -1.89463359512433        1.55424289568477
H           -8.62817410453093       -3.90461272896927        2.59940803147516
H           -7.24458248970997       -5.91735382956370        2.95567004645607
H           -4.88080884791377       -5.92211383987602        2.25540641986713
H           -3.89600495928048       -3.93327863278503        1.21324761511853
H           -8.14619211414504       -0.06725659237357       -0.78338752303380
H           -9.77108480812282        1.39951670269002       -1.94567783831203
H           -9.00839299422779        3.51412527323176       -2.95809395255783
H           -6.63418698662054        4.16315064517411       -2.81597929116469
H           -5.02025186567966        2.68611200961217       -1.65093723380589
H           -1.07274334285660       -1.45617651057096        0.63698477463388
H            1.18422227609698       -0.60118708427798        0.67690244264873
H            5.62879807149727        1.01962435203440        2.74601503827801
H            6.20042046745662       -0.98539953171555        1.48398461065714
H            1.20418962334094        0.58021678694969       -2.10004724490844
H            0.78585971709719       -0.85937223858959       -4.04521719363647
H            2.16558895668361       -2.84127140664265       -4.46637940738418
H            4.04919396437599       -3.41217119956804       -2.97958565593229
H            5.31442897377301       -3.30541169945536        1.34072412713653
H            7.11034784370464       -4.99223965437659        1.42874673289676
H            8.48234025325102       -5.44284594877996       -0.57159491296672
H            8.06904018970145       -4.18444051789681       -2.65298991139979
H            6.30333693519235       -2.46571053624786       -2.72816096945674
