107
 energy: -152.495504108130 gnorm: 0.000070661445 xtb: 6.7.1 (edcfbbe)
C           -9.66600289189551        2.06017017032805       -0.05580098404940
C           -8.51495985080143        3.06995604382265       -0.06532065855596
C           -8.65382835573203        3.96030762302896        1.17773961600828
C           -8.64280063695971        3.92446966819750       -1.33426042674042
C           -7.14892490414658        2.39933077613552       -0.04661496632561
C           -6.00069805779851        3.20255615537382       -0.05342703727881
C           -4.72184781289375        2.68498178159153       -0.02378044374238
C           -4.57694310278295        1.30699657171920        0.02510111531479
C           -5.71607114813255        0.47570648250482       -0.00022002512235
C           -6.99155295235234        1.02349019818762       -0.03096796012777
C           -5.23287501299786       -0.87743039612294        0.00034023068738
C           -5.86590591324254       -2.10985079229661       -0.00799921375610
C           -5.11553981583782       -3.27785133114400        0.01427506607968
C           -5.83545918975490       -4.61913410310148       -0.01137718439050
C           -6.73973792898908       -4.72608987842351        1.22470539686938
C           -6.68670729112922       -4.70590760088597       -1.28633035706378
C           -4.87573167866615       -5.81209457306391       -0.00231850844717
C           -3.72305722259698       -3.17346963331775        0.07039554368315
C           -3.06525553986250       -1.95691368835028        0.08157854571723
C           -3.82313588000684       -0.79947102276585        0.02381413176387
N           -3.43588597337182        0.52722746861449        0.03982450041611
C           -2.11971714404519        0.99924952088919        0.06389260797991
C           -1.74636591579191        2.00034548466073        0.95769971701397
C           -0.45131163365293        2.47648009228972        0.96596387249379
C            0.51018517933291        1.95105474788763        0.10534436780937
C            1.88948308244306        2.45493325986942        0.11319670614315
C            2.13770626273020        3.82652720323025        0.16998934637145
C            3.42635935189481        4.32908005029498        0.14647787386934
C            4.48705866219288        3.44065955397065        0.07807650666151
C            4.24390244271736        2.06007966350381        0.04185509372894
C            2.96285615809707        1.56320040843285        0.05043711318395
C            5.54560873389074        1.28379852343583       -0.00641451781906
C            6.56035832832910        2.41014749493769       -0.03244439948545
C            7.93268879040512        2.31854832787380       -0.09588769092304
C            8.67590231996734        3.49149145889835       -0.10184507229612
C            8.05088517153025        4.72783389315704       -0.04318273614256
C            6.67013824077638        4.82491339505352        0.02201170723394
C            5.92355956647297        3.65823327910319        0.02691304580356
C            5.62349505636796        0.45190322568798       -1.26272027770562
C            5.49128806756292        1.08628617509310       -2.48851896434649
C            5.53590253379817        0.37592002208199       -3.67375607954186
C            5.70902039017441       -0.99690784127964       -3.63221596067293
C            5.84241738859431       -1.64560509930328       -2.42153032467273
C            5.80924231253967       -0.93249417358366       -1.22001694194416
N            5.94707868117131       -1.59424654285559       -0.01048166763069
C            6.13615310742273       -3.00469316024983       -0.01117801752999
C            7.40235126483928       -3.53586532315522       -0.22095097527946
C            7.58185960224349       -4.90769320331222       -0.21981669695382
C            6.50292944904022       -5.74984992476084       -0.00746261676268
C            5.24067920421306       -5.21999818812664        0.20274391160790
C            5.05368980875117       -3.84916859926942        0.20013665705762
C            5.90895398676407       -0.92253069817276        1.20110294522599
C            6.08015895897302       -1.62105145935939        2.39944183784332
C            6.04120364935251       -0.96421329291782        3.61232392417732
C            5.83392477491946        0.40358513792030        3.65899002631793
C            5.67459033045877        1.10244024056808        2.47694719231518
C            5.71196803964122        0.45989824752145        1.24883502553121
C            0.13267929453575        0.93782833347048       -0.77381439532282
C           -1.16672617558770        0.47520479422857       -0.80652773088788
H           -9.63536757776686        1.44083384657953        0.83769828057343
H          -10.61538722287128        2.59223931987402       -0.06327671731441
H           -9.63288720241711        1.42113892973870       -0.93521282415890
H           -7.89767300411051        4.74022714858919        1.19370979345996
H           -8.54591777436900        3.36292646789642        2.08082561627566
H           -9.63287042809995        4.43504704782583        1.19241650220718
H           -9.62406781794865        4.39318590436989       -1.37379535388727
H           -8.52064225217774        3.30289726324948       -2.21895505682484
H           -7.89090421140713        4.70806644535407       -1.36309851079224
H           -6.10670930224253        4.27632442277567       -0.08666428346885
H           -3.86456577666278        3.34072165407450       -0.05126909607031
H           -7.83784585347462        0.35710382725562       -0.04587777164015
H           -6.94442636002682       -2.14136045659905       -0.02869680292939
H           -7.48888018973576       -3.93939135216221        1.23616049604134
H           -6.14565653849917       -4.64322214761260        2.13256853366339
H           -7.25288811309605       -5.68565240405111        1.23357967165472
H           -6.05436090577958       -4.61196995203416       -2.16686776931040
H           -7.43349190488505       -3.91767633563932       -1.31909006488858
H           -7.20090638155055       -5.66392271012746       -1.33079030714169
H           -4.27240512379506       -5.82364997370932        0.90248595987353
H           -5.44842096443198       -6.73708189249193       -0.03470772876843
H           -4.21964583410686       -5.79329213966922       -0.86958475771949
H           -3.11824293295959       -4.06433887890090        0.11061893476941
H           -1.98804700952610       -1.92118269237105        0.14596207673789
H           -2.47370111984585        2.38906607824516        1.65459887581190
H           -0.17056362315477        3.24569604623540        1.67051493946233
H            1.30057541826010        4.50872876826625        0.20600030138064
H            3.59864890233399        5.39491096533988        0.17646255474620
H            2.78490907071226        0.49762139024763        0.02801363106428
H            8.41993641723988        1.35520827993989       -0.14089011395325
H            9.75367476436531        3.44062245067497       -0.15268447568398
H            8.64946758220464        5.62728182116848       -0.04890622872258
H            6.18772193848275        5.79022928641268        0.06701710791934
H            5.34958587540223        2.15744657968365       -2.50618316899511
H            5.43248316590390        0.88758412392661       -4.61816926290522
H            5.73944649281445       -1.57018207594621       -4.54701418815629
H            5.97140802684705       -2.71723880737673       -2.40184215436705
H            8.23604593458460       -2.86922152988562       -0.38542485363746
H            8.56651182394194       -5.31992548377006       -0.38281837762378
H            6.64610566100711       -6.82000001067328       -0.00549667317811
H            4.39880749492528       -5.87578483342630        0.36788936886811
H            4.07438101490263       -3.42435285685864        0.36449174755365
H            6.24796555272743       -2.68717326461295        2.37560357220641
H            6.17548828277332       -1.52654148727770        4.52451531309355
H            5.80106346013051        0.92173093424536        4.60493123773792
H            5.51917757582538        2.17144540024012        2.50035409915558
H            0.86096642947581        0.53409372439370       -1.46223238731655
H           -1.45712662303895       -0.28152078922400       -1.51984147816257
