107
 energy: -152.407519465599 gnorm: 0.000090511910 xtb: 6.7.1 (edcfbbe)
C           -9.87024498270980        2.40929764137312       -0.59781107229500
C           -8.67858615143856        3.36822846025202       -0.66855721952805
C           -8.83833028610858        4.40804736745100        0.44996818672057
C           -8.70830119902316        4.06600921507060       -2.03578623570821
C           -7.34493065412214        2.65733762193062       -0.49764986927451
C           -6.16508544288453        3.41395095383545       -0.52971988819948
C           -4.91281673073842        2.85881600872057       -0.36302815380881
C           -4.82809189447524        1.49182028003741       -0.14137707135913
C           -5.99914414666612        0.70130481728793       -0.15177939986905
C           -7.24570508186338        1.28525198459012       -0.32226725078179
C           -5.57271413368074       -0.66019325749721        0.02190564985897
C           -6.25944417635819       -1.86315369041622        0.09617935686749
C           -5.56063787524661       -3.04369312177187        0.29899956090404
C           -6.24455334246949       -4.40055353250562        0.36725103896787
C           -7.75955523555167       -4.30692743484426        0.16640831640386
C           -5.67408592513818       -5.30420330108670       -0.73550753452646
C           -5.98414656522777       -5.03057581779064        1.74292703595883
C           -4.16926066591598       -2.97782690307287        0.45796722128890
C           -3.46182223811736       -1.79510951419559        0.38940768382961
C           -4.16525354877972       -0.62586711249261        0.13755736830101
N           -3.72300503152272        0.68031272152407        0.03584840711237
C           -2.39938740070086        1.09196904403242        0.09665239820893
C           -2.02231243444529        2.23358889086272        0.83097402773372
C           -0.71583397990879        2.61809502279551        0.90684943764959
C            0.32755712148974        1.87994295461866        0.27219133799034
C            1.69120717731808        2.22532114769880        0.40001307802335
C            2.12570454130507        3.54225300573614        0.77826289878914
C            3.43840814916012        3.88193215239928        0.87465128162160
C            4.43689246957171        2.90635079018609        0.63910388637989
C            4.01707206307900        1.57720528289352        0.31276155710833
C            2.71601668231243        1.24896851398788        0.16809967578613
C            5.23382613587045        0.66940327815330        0.17553321883356
C            6.36216589612017        1.65741582492730        0.35844556881209
C            7.71143194881198        1.42899567557833        0.29557467648868
C            8.58700287411820        2.49292694804192        0.52172611691008
C            8.09591514869037        3.76522015738104        0.81162076363506
C            6.74299353816509        4.01129058588810        0.88026888082908
C            5.84804399576530        2.95298117478855        0.65037731324205
C            5.19639603297414        0.00759523499755       -1.17714788092309
C            5.69607773887847        0.65897506250263       -2.29225535875997
C            5.53235042137113        0.13191961343478       -3.56120990763572
C            4.82892902116009       -1.04948970871562       -3.72058813026991
C            4.32915124652707       -1.71783249346754       -2.62053202499399
C            4.52794699412913       -1.21521826523213       -1.33349824707910
N            4.06642364354393       -1.89884447693825       -0.21615489650259
C            3.18021285446199       -2.99946075503563       -0.35727279153651
C            3.62248078706084       -4.22064090963497       -0.85319150584051
C            2.73389632274336       -5.27283586402595       -0.98505211824294
C            1.40719093553661       -5.11527313427303       -0.61963841776054
C            0.96922405073227       -3.90348993236873       -0.11237956485696
C            1.85151805725539       -2.84680776151033        0.02175133725164
C            4.52404138824394       -1.57466675896363        1.05373721602474
C            4.37506943151358       -2.47728945162931        2.10809245202937
C            4.85802566561764       -2.17168493019702        3.36472573535318
C            5.50590087996717       -0.96892608879946        3.58887387829687
C            5.65576536836729       -0.06946217674842        2.54779466472651
C            5.17226902789933       -0.35549706425875        1.28190195155473
C           -0.08752271873106        0.74649420827256       -0.49207642606904
C           -1.39467277435863        0.37126851683398       -0.57786683931002
H           -9.90480212657913        1.89860299635643        0.36181682759589
H          -10.79482111916370        2.97164615331615       -0.71226791514053
H           -9.82685036923442        1.67083449484445       -1.39503418682790
H           -8.05309883328999        5.15770682769482        0.41111760493819
H           -8.79770742513799        3.92217670651414        1.42273954838393
H           -9.79678013186283        4.91444479144957        0.35663801300751
H           -9.66551702184373        4.56214743159933       -2.18201435809710
H           -8.57129403975378        3.33752397722747       -2.83230779576120
H           -7.92298427049631        4.81202398978965       -2.11854045943609
H           -6.22408425643820        4.47850701892273       -0.69652814252589
H           -4.02966769796074        3.47592892236800       -0.42204862289249
H           -8.11714592175783        0.65205689889809       -0.31875416490838
H           -7.33199525654892       -1.85204853382690       -0.00252670637980
H           -8.22148978349091       -3.70491878046623        0.94545929375954
H           -8.19331620152961       -5.30390648099460        0.21215934849188
H           -7.99973870640913       -3.88084977379342       -0.80499740928870
H           -5.83853611544826       -4.85376687607132       -1.71227547790434
H           -6.16506323573069       -6.27494342774310       -0.71582748711105
H           -4.60657245623090       -5.46090051280086       -0.60867017687969
H           -6.36380041529097       -4.38285739868870        2.53042631456982
H           -6.48644712341387       -5.99302648876318        1.81494964291230
H           -4.92296069374697       -5.18780266232235        1.91424536895335
H           -3.61619807618894       -3.88494545645751        0.64856256354967
H           -2.39394867850286       -1.78581241680875        0.54518496745163
H           -2.77863099236018        2.77411401054280        1.38092177957336
H           -0.45912903592022        3.46730363539814        1.52028861408734
H            1.37591352802876        4.30170512250063        0.94020437098604
H            3.72879788156412        4.89146183983772        1.12745213886933
H            2.43631359489882        0.23618325856369       -0.07192491805533
H            8.09457146070022        0.44256857104397        0.07494156335858
H            9.65283202412728        2.32826586657002        0.47424401877923
H            8.79540266268536        4.57106890379345        0.98440957645426
H            6.36876496389714        4.99917397655580        1.10367083628997
H            6.20712261762838        1.60123164524695       -2.16040018287191
H            5.92979085171593        0.65186350348666       -4.41922461984886
H            4.66559794759466       -1.45709075290537       -4.70723816741501
H            3.77463092869628       -2.63276159418104       -2.76179612662012
H            4.66116285420787       -4.33952741748883       -1.12503017716877
H            3.08026057081872       -6.22030760645530       -1.37044352637187
H            0.71700184948442       -5.93869517289490       -0.72561309170939
H           -0.06313595783296       -3.77868288124511        0.17869075050022
H            1.51633392202062       -1.90311277709384        0.42690991607314
H            3.88304139197683       -3.42306390012271        1.93674769863640
H            4.73127337240133       -2.88039520314138        4.16958034120764
H            5.88618675201279       -0.72796172406394        4.56966671876062
H            6.14755968228615        0.87625677331493        2.72012085387591
H            0.64384965467236        0.20775129559023       -1.07448629512778
H           -1.68073903807059       -0.45726922094145       -1.20952188841205
