  107
       -152.40493536
 C         -9.8438511619        2.5362558699       -0.6544888167
 C         -8.6262195311        3.4610858991       -0.7367060356
 C         -8.7931373544        4.5624264916        0.3200490579
 C         -8.5965746379        4.0858181878       -2.1389764028
 C         -7.3169382870        2.7281740264       -0.4880998844
 C         -6.1170100966        3.4527899026       -0.5275291713
 C         -4.8839750088        2.8745128102       -0.3046590442
 C         -4.8407143756        1.5177036502       -0.0188691380
 C         -6.0327248030        0.7581246323       -0.0106389751
 C         -7.2591273801        1.3653174662       -0.2374203791
 C         -5.6457445982       -0.6034136820        0.2365939343
 C         -6.3647086169       -1.7825586842        0.3668723515
 C         -5.6994440222       -2.9681850608        0.6412865354
 C         -6.4212247636       -4.2994689022        0.7828281611
 C         -7.9284554392       -4.1802672260        0.5408627836
 C         -5.8530449475       -5.2916660579       -0.2423414330
 C         -6.2072714674       -4.8401791684        2.2038213314
 C         -4.3077071872       -2.9315687125        0.8089574791
 C         -3.5680015686       -1.7733833627        0.6835116945
 C         -4.2385718851       -0.6008133475        0.3671525539
 N         -3.7604471104        0.6865488811        0.2102410275
 C         -2.4273863335        1.0660541414        0.2604995995
 C         -2.0226539623        2.2179168549        0.9630752540
 C         -0.7079782946        2.5753279004        1.0244605580
 C          0.3172410032        1.8104675159        0.3901925917
 C          1.6865017954        2.1506518285        0.4802077772
 C          2.1308082024        3.4596906670        0.8683322934
 C          3.4461256281        3.7996569950        0.9416988978
 C          4.4380794056        2.8348778613        0.6540504633
 C          4.0121771636        1.5198934565        0.2916395774
 C          2.7065994644        1.1864821216        0.1900030288
 C          5.2270179334        0.6284881732        0.0561238892
 C          6.3589752494        1.6034812708        0.2840225895
 C          7.7069831442        1.3766323281        0.1921850045
 C          8.5868263926        2.4275200610        0.4575896702
 C          8.1009806879        3.6853039346        0.8116706698
 C          6.7491996742        3.9292640016        0.9085842916
 C          5.8502831175        2.8833725979        0.6427116026
 C          5.1568690221        0.0963090387       -1.3519919359
 C          5.5997385675        0.8675982844       -2.4137323246
 C          5.4071525954        0.4614109369       -3.7221885594
 C          4.7306913814       -0.7198587368       -3.9742884520
 C          4.2875876518       -1.5062876051       -2.9297399687
 C          4.5177859993       -1.1256223748       -1.6061333549
 N          4.1152903718       -1.9293042421       -0.5480026439
 C          3.2758739230       -3.0516892108       -0.7753259598
 C          3.7576273538       -4.1930792878       -1.4061706795
 C          2.9145167651       -5.2687492288       -1.6207406955
 C          1.5948028220       -5.2144531949       -1.2036888574
 C          1.1183026416       -4.0833063783       -0.5624761189
 C          1.9547980938       -3.0033320696       -0.3459381866
 C          4.5872483479       -1.7047631809        0.7379043317
 C          4.4861429083       -2.7028183581        1.7092727563
 C          4.9806711587       -2.4949256712        2.9810278404
 C          5.5923923686       -1.2953165953        3.3038286109
 C          5.6969314214       -0.3028347878        2.3453209055
 C          5.2026369513       -0.4909058316        1.0650656143
 C         -0.1268978671        0.6640217524       -0.3378096952
 C         -1.4403531662        0.3053135428       -0.3957710831
 H         -9.9239848187        2.0815221153        0.3302562183
 H        -10.7492893919        3.1130232379       -0.8326005969
 H         -9.7925795779        1.7531011872       -1.4074074744
 H         -7.9893405384        5.2911316138        0.2650272637
 H         -8.7920288331        4.1285065692        1.3179016768
 H         -9.7361734586        5.0844041102        0.1714393109
 H         -9.5359182758        4.5962779095       -2.3413255027
 H         -8.4542281918        3.3129477801       -2.8915044253
 H         -7.7903304301        4.8073203388       -2.2360616080
 H         -6.1441358606        4.5090042044       -0.7470069723
 H         -3.9828997209        3.4645680782       -0.3705507036
 H         -8.1474686311        0.7562558563       -0.2206443776
 H         -7.4356724506       -1.7490913747        0.2567084249
 H         -8.3919299298       -3.5206118922        1.2707899174
 H         -8.3892400625       -5.1614012711        0.6369700267
 H         -8.1354192028       -3.8085998626       -0.4601278046
 H         -5.9702340647       -4.8983642463       -1.2501165291
 H         -6.3812525114       -6.2407488068       -0.1783619100
 H         -4.7968448035       -5.4796253916       -0.0710372726
 H         -6.5938608851       -4.1343313460        2.9359616186
 H         -6.7293276098       -5.7867468086        2.3274749941
 H         -5.1536956173       -5.0027704791        2.4127088022
 H         -3.7809513421       -3.8411481915        1.0539603457
 H         -2.5010863944       -1.7837478536        0.8460864839
 H         -2.7654768618        2.7880246023        1.5018443110
 H         -0.4332641646        3.4315588034        1.6196768673
 H          1.3878092631        4.2166946131        1.0671242427
 H          3.7401936084        4.8032021553        1.2134918349
 H          2.4276661065        0.1782372817       -0.0702199749
 H          8.0853584409        0.4012233365       -0.0799767099
 H          9.6517606689        2.2642986072        0.3896063418
 H          8.8036068350        4.4819052191        1.0125361310
 H          6.3795167753        4.9062093380        1.1821147755
 H          6.0903337506        1.8071043518       -2.2066979786
 H          5.7617272581        1.0734041867       -4.5371738310
 H          4.5446121462       -1.0346616721       -4.9903979293
 H          3.7533035637       -2.4192764370       -3.1427696475
 H          4.7909853655       -4.2320228772       -1.7184447605
 H          3.2910971086       -6.1537592638       -2.1117089853
 H          0.9399531096       -6.0556227666       -1.3743448605
 H          0.0914262032       -4.0395346197       -0.2314747361
 H          1.5910047995       -2.1227225818        0.1632253054
 H          4.0228824362       -3.6459807927        1.4608699588
 H          4.8911221232       -3.2769688929        3.7202784590
 H          5.9805272613       -1.1303635055        4.2971689393
 H          6.1620688311        0.6396092299        2.5931759226
 H          0.5864490982        0.0951640084       -0.9134406058
 H         -1.7463776721       -0.5402255853       -0.9950701441
