107
 energy: -152.496381901398 gnorm: 0.000058093850 xtb: 6.7.1 (edcfbbe)
C           -9.85710454392492        2.43239883973484        0.02516307835757
C           -8.68855397993251        3.41897393720179       -0.05053745947773
C           -8.76328127552511        4.33862665579708        1.17665581297458
C           -8.84828040350640        4.24821246920055       -1.33255580109586
C           -7.33557261319379        2.72239235316702       -0.06830714171357
C           -6.17405632461622        3.50407438204423       -0.13221098471010
C           -4.90475101988501        2.96329836125501       -0.13753646056756
C           -4.78410080966843        1.58408349507361       -0.06606567929536
C           -5.93778005502548        0.77270731889576       -0.03415779958465
C           -7.20343468808084        1.34438637453143       -0.03097980670889
C           -5.47859553809921       -0.58871495639386       -0.01959292869368
C           -6.13784701414471       -1.81055185988734        0.02142768077737
C           -5.40675604798930       -2.98643267340506        0.04752051407800
C           -6.06039720208124       -4.36056567559705        0.07517704895327
C           -7.58950374981332       -4.28492322790960        0.05677356223320
C           -5.60965684329796       -5.15579707115012       -1.15852226620587
C           -5.63596094477641       -5.09799391151772        1.35308364234990
C           -4.00777358734995       -2.90388085195469        0.05623820102793
C           -3.32718740422628       -1.70451451278869        0.01653163096077
C           -4.06945460015339       -0.53494011743321       -0.04508556623270
N           -3.65819646244481        0.78405127358687       -0.07417390742996
C           -2.32866019217499        1.21579652434740       -0.09612596335950
C           -1.88911891977410        2.21635501451700        0.76726954137910
C           -0.56426435634362        2.60503028199862        0.76295749321608
C            0.35762101630542        1.99035053468216       -0.08069398894672
C            1.78754225186670        2.31767069561637       -0.02634154578310
C            2.24820374206866        3.63024111914854        0.06397736391441
C            3.60269705373053        3.91603764916841        0.10492597190358
C            4.51172127381554        2.87010638786799        0.07366715955005
C            4.04972622805706        1.54959627525250        0.00637066907768
C            2.70840900347397        1.26882301114368       -0.05444081665028
C            5.20823281103744        0.56649279765652        0.01538920064963
C            6.38942715017468        1.50522961285575        0.04687497233502
C            7.73150865693693        1.19115054149956        0.04700564574310
C            8.65698262516581        2.22546163070978        0.09059951515058
C            8.24161549634456        3.54777280235609        0.13639175502159
C            6.89383546972312        3.87009325682847        0.13831460051021
C            5.96532993991249        2.84311123515746        0.09273115671995
C            5.12951223428687       -0.28839830227590       -1.22705614077311
C            5.68529750847031        0.14521839215830       -2.41856047192914
C            5.48950387968075       -0.55673790124986       -3.59524214834826
C            4.70021565405378       -1.69259467659455       -3.58345410527883
C            4.14594070861892       -2.14559405831217       -2.40217720677923
C            4.37212492875756       -1.46674903067577       -1.20460239396578
N            3.85129007709328       -1.93177588157449       -0.00306225752807
C            2.90616731217519       -2.99262614279293        0.01201277737886
C            3.28708775110939       -4.29994250894136       -0.26910991800640
C            2.34428416326123       -5.31211875521023       -0.25071131900046
C            1.02320032161290       -5.02874842738314        0.05438456349153
C            0.64486884903228       -3.72950572530366        0.34731400975555
C            1.58179861386426       -2.71188924507098        0.32668199161925
C            4.35713610841882       -1.47263301983770        1.20652104516804
C            4.16175114455130       -2.20383945133984        2.37853234910982
C            4.69032434720308       -1.76404246440673        3.57595863877755
C            5.43192871306454       -0.59698795011713        3.62425744996584
C            5.62656810052812        0.13506619209857        2.46586106183063
C            5.09633631298241       -0.28642033179734        1.25828088346727
C           -0.09541328796190        1.00386060898861       -0.95617609931581
C           -1.42179210345945        0.62893756814040       -0.97608060354639
H           -9.80303433117303        1.83110252060950        0.92979469073193
H          -10.79581070607823        2.98280556828548        0.04326082438243
H           -9.87069248123171        1.77484250135159       -0.84098043533107
H           -7.99369267249476        5.10484755753059        1.14614296094557
H           -8.63084662959102        3.75919853121595        2.08813563078788
H           -9.73251909197181        4.83148537608269        1.21831864232730
H           -9.82115873475503        4.73548128370661       -1.34556648052551
H           -8.77184357266601        3.60537307940052       -2.20712714469491
H           -8.08313057065252        5.01581953976314       -1.40721179647538
H           -6.26201968731835        4.57873975541745       -0.18302902419101
H           -4.03667968592267        3.60143895532739       -0.20787744692551
H           -8.06202560453760        0.69440573465785       -0.00224769212831
H           -7.21495582204840       -1.81417771014213        0.03517982237171
H           -7.96569648102505       -3.75759361077953        0.93035048654083
H           -8.00272672089456       -5.29169059039054        0.06891544455792
H           -7.94530806091131       -3.78684853249998       -0.84218119661972
H           -5.89154702517177       -4.62881761178728       -2.06783012202091
H           -6.08212882022781       -6.13600384667472       -1.16679642512549
H           -4.53254846487892       -5.29771045897342       -1.16834814711503
H           -5.93076453918988       -4.52702454112161        2.23116253361852
H           -6.11391562399625       -6.07447989626036        1.39927432633293
H           -4.56005742466797       -5.24469721525747        1.38877274225197
H           -3.42543548936842       -3.81221185689827        0.09726069436479
H           -2.24785183249302       -1.68361425698532        0.04278740724772
H           -2.58513655899751        2.66530953561470        1.45987355040854
H           -0.22871492615460        3.36578608195504        1.45249454016647
H            1.53170818169427        4.43903205377764        0.07627469217418
H            3.94152088603093        4.94022665687393        0.15848132827278
H            2.35938601540654        0.24972271420818       -0.10610945024853
H            8.05500931805081        0.16086727304252        0.01279928657733
H            9.71280055212377        1.99745838943213        0.08936823278867
H            8.97939982635355        4.33631290317360        0.17071389652177
H            6.57486345111650        4.90127997202987        0.17388323251510
H            6.26577105272807        1.05608901815513       -2.42592312919409
H            5.92991637297949       -0.20472279681629       -4.51534727251467
H            4.51215708909377       -2.23456710130063       -4.49852130697596
H            3.52588877574089       -3.02881883148451       -2.41051508933332
H            4.32151613990643       -4.51496318753286       -0.49446877453803
H            2.64342459053528       -6.32638093069385       -0.47009411093815
H            0.29083010120191       -5.82194735134759        0.06868422662703
H           -0.38274271668444       -3.50647226908488        0.59336242736599
H            1.29045708931928       -1.69841484949445        0.56251046141405
H            3.59424120771234       -3.12186486808625        2.34670469130474
H            4.52472978752748       -2.34157612326088        4.47334035063285
H            5.84858146848781       -0.25148290073519        4.55786129614814
H            6.18959841329258        1.05605739960444        2.50105437224266
H            0.59897585469952        0.54338547023034       -1.64427264494955
H           -1.76681306492225       -0.11522185143503       -1.67816889598002
