  106
       -174.52493249
 O          2.2973089385        3.7205703616       -0.4268285466
 C          1.1761290395        3.2836948047       -0.1895457026
 C          0.7223928907        1.9244214218       -0.0831410230
 C         -0.6974994890        1.9332178867        0.0881585323
 C         -1.4139988126        0.7347654948        0.1607871868
 N         -2.8049020129        0.7475203850        0.2978665764
 C         -3.5290975295        0.0594226900        1.2462107045
 C         -3.0846296464       -0.5975851767        2.3844582624
 C         -4.0281748068       -1.2329843022        3.1700305525
 C         -5.3813741352       -1.1916421361        2.8495843673
 C         -5.8348995266       -0.4854922698        1.7476331464
 C         -4.9067817086        0.1520916697        0.9419044298
 C         -5.0058499903        0.9652701383       -0.2420642335
 C         -6.0697976961        1.3917375048       -1.0195444915
 C         -5.8039428332        2.1613203373       -2.1392893229
 C         -4.4979729956        2.4889768744       -2.4922328058
 C         -3.4205039018        2.0676386666       -1.7362242177
 C         -3.6842469777        1.3192933314       -0.5976264802
 C         -0.7150176793       -0.4717080930        0.0844286279
 N         -1.4011155276       -1.6935393728        0.1692293082
 C         -1.2154367631       -2.6693896086        1.1289370556
 C         -0.3139943666       -2.7124578873        2.1821870670
 C         -0.3412657157       -3.8173052017        3.0109876002
 C         -1.2568073022       -4.8476870917        2.8156984535
 C         -2.1861161340       -4.7890152242        1.7944005312
 C         -2.1727536914       -3.6923601186        0.9455922466
 C         -2.9850908954       -3.2969585893       -0.1713594346
 C         -4.0770367249       -3.8648556831       -0.8098773887
 C         -4.6289527872       -3.2047806654       -1.8917424909
 C         -4.0832833102       -2.0122906329       -2.3596413534
 C         -2.9908863899       -1.4326528448       -1.7449152865
 C         -2.4683851093       -2.0620759753       -0.6234590049
 C          0.7058691236       -0.4807829471       -0.0713411809
 N          1.3787071644       -1.7107054504       -0.1449756306
 C          1.1851721493       -2.6951235364       -1.0940735811
 C          0.2837548211       -2.7421961096       -2.1473087572
 C          0.3062052814       -3.8533403755       -2.9676784476
 C          1.2161036228       -4.8870989440       -2.7636063151
 C          2.1431247360       -4.8266588893       -1.7403842946
 C          2.1346046104       -3.7235517286       -0.8999319014
 C          2.9479682949       -3.3244114817        0.2149602994
 C          4.0309220171       -3.8976312918        0.8640714015
 C          4.5856206249       -3.2323709680        1.9413971363
 C          4.0527208164       -2.0278725490        2.3929774317
 C          2.9696149718       -1.4424308611        1.7672481886
 C          2.4424492768       -2.0797567025        0.6524435527
 C          1.4209339242        0.7156351896       -0.1594271893
 N          2.8095887079        0.7043790242       -0.3181161277
 C          3.5024396763       -0.0003982351       -1.2780653195
 C          3.0234112360       -0.6538615748       -2.4041757596
 C          3.9392410964       -1.3088258725       -3.2064038262
 C          5.2992577781       -1.2893516398       -2.9143314355
 C          5.7876832493       -0.5847277362       -1.8263425063
 C          4.8875345916        0.0722193604       -1.0043863864
 C          5.0249615726        0.8928875395        0.1705789017
 C          6.1128432892        1.3134699805        0.9174653671
 C          5.8840869230        2.0991865110        2.0341829201
 C          4.5912585737        2.4470901019        2.4152044870
 C          3.4904008264        2.0316723369        1.6903862007
 C          3.7168836105        1.2690284048        0.5531595737
 C         -1.1350171738        3.2975623518        0.1973598556
 O         -2.2511415315        3.7470001258        0.4343137615
 N          0.0258672949        4.0783548707        0.0071318912
 C          0.0362726876        5.4758130195        0.0187994520
 C          1.1773664317        6.1691663236        0.4265918362
 C          1.1815394309        7.5495438766        0.4325100280
 C          0.0562115512        8.2597428124        0.0461040652
 C         -1.0790226870        7.5735548856       -0.3540990127
 C         -1.0946424117        6.1933722293       -0.3752741447
 H         -2.0414799340       -0.6031445759        2.6590844296
 H         -3.7059794614       -1.7673422223        4.0509438142
 H         -6.0894103481       -1.7038135839        3.4834656107
 H         -6.8887280821       -0.4293800084        1.5219037539
 H         -7.0824927661        1.1258817437       -0.7573763094
 H         -6.6199952610        2.5096185952       -2.7545807978
 H         -4.3224166467        3.0833852063       -3.3764210128
 H         -2.4104706075        2.3188170443       -2.0214854849
 H          0.3814266145       -1.9084782176        2.3646531080
 H          0.3602605885       -3.8776068306        3.8295347676
 H         -1.2461990739       -5.6965034691        3.4827154497
 H         -2.9118546948       -5.5762471277        1.6588199544
 H         -4.4840671627       -4.8035960381       -0.4666050328
 H         -5.4867865788       -3.6248587973       -2.3946840219
 H         -4.5185167993       -1.5300771121       -3.2219008428
 H         -2.5616980673       -0.5214430029       -2.1336402833
 H         -0.4077379565       -1.9363482754       -2.3365692895
 H         -0.3945236322       -3.9159493303       -3.7867235108
 H          1.2028585724       -5.7400547562       -3.4252701822
 H          2.8642786786       -5.6168762756       -1.5976529982
 H          4.4285567569       -4.8446585811        0.5326495963
 H          5.4359961177       -3.6571368107        2.4531462375
 H          4.4905713618       -1.5408823539        3.2513113346
 H          2.5502016393       -0.5213693660        2.1433783509
 H          1.9750675613       -0.6414723351       -2.6577489594
 H          3.5894092673       -1.8413841132       -4.0778287362
 H          5.9850939242       -1.8162501137       -3.5604367077
 H          6.8469499550       -0.5439222230       -1.6240804825
 H          7.1154579588        1.0327360657        0.6330638401
 H          6.7194143342        2.4452830839        2.6243850853
 H          4.4450021667        3.0532359889        3.2966889777
 H          2.4909501910        2.2979973522        1.9979190310
 H          2.0527689843        5.6210636980        0.7343114535
 H          2.0693584732        8.0754366676        0.7514578939
 H          0.0637184528        9.3395234408        0.0573396093
 H         -1.9588783280        8.1183582528       -0.6633569995
 H         -1.9777893466        5.6640608888       -0.6930963515
