112
 energy: -169.667756082194 gnorm: 0.000047580135 xtb: 6.7.1 (edcfbbe)
C          -12.38524559432293        3.14718173429850        1.95055129404946
C          -11.10196684653827        2.86731830457923        2.39071151700158
C          -10.40852303880836        1.78561172926240        1.88428911897908
C          -10.99099599220835        0.96747283616985        0.91633131191549
N          -10.28974435211863       -0.12634525858583        0.39678689639656
C          -10.96534103090533       -1.31340371810124        0.09379210246745
C          -10.60026900129643       -2.07096691729127       -1.01905368236144
C          -11.26723052435368       -3.24439056673888       -1.31180026917450
C          -12.31054647284694       -3.67790263002371       -0.51029192046607
C          -12.67997903838659       -2.92728261487829        0.59385380339784
C          -12.01344728471232       -1.75703005154078        0.90007556473164
C           -8.91122479071174       -0.03151471329392        0.18095667591794
C           -8.07787038243813       -1.12479456282762        0.41831664267521
C           -6.71920548210070       -1.02780496781035        0.19949897108320
C           -6.15020899496148        0.16213527757400       -0.24651319333972
C           -4.69494516514109        0.26858402485731       -0.47057319608013
C           -4.09037230478831       -0.46230043764472       -1.50401727017551
C           -4.84151131049735       -1.29611807146351       -2.37361280889434
C           -4.23848804203586       -2.01115270724252       -3.36200895090821
C           -2.84290784568057       -1.93849196236874       -3.54496948645143
C           -2.08903688120410       -1.13234807509742       -2.74972611869148
C           -2.68103307419305       -0.35722061252090       -1.71815269392524
C           -1.91472798432631        0.49356834079540       -0.91172729958863
C           -0.46441167130562        0.63994843667165       -1.16782511234055
C           -0.04081968328776        1.44852781972460       -2.21618426463312
C            1.30159882380182        1.62708433079124       -2.48145887394405
C            2.27204969509504        1.00036650503063       -1.69822888011769
C            3.66521547653661        1.14996045571966       -1.95150420983476
C            4.59207891554181        0.54594062676864       -1.17250563360823
C            4.21566039015573       -0.26486824366554       -0.06051991095011
C            5.16103890113502       -0.89268409883159        0.77099449384705
C            6.60482821503394       -0.65792394134923        0.62341428323796
C            7.48717279403730       -1.72993559359049        0.50869808324324
C            8.84504395501447       -1.52317298498126        0.38619074862535
C            9.36642900556759       -0.22905944817248        0.39722375159178
N           10.74190436315784       -0.01305055523613        0.27520766834863
C           11.21495221816780        1.09153795738639       -0.44227314727712
C           10.55996932988835        1.51839589369160       -1.59737888179815
C           11.02842719930054        2.61145479738555       -2.29973877936973
C           12.15731576011110        3.29030265767646       -1.87118982751551
C           12.81424985141626        2.86791318077868       -0.72705041634360
C           12.34852496568345        1.78134768186589       -0.01281628995658
C           11.64667079018704       -0.90116025171786        0.86780190777115
C           12.84286903491196       -1.22412194026143        0.22738721371134
C           13.73538563404863       -2.09665596033845        0.81872261190784
C           13.44977963168114       -2.66715838104623        2.04835821907249
C           12.26100727803960       -2.35336759208750        2.68656272047391
C           11.36583942603828       -1.47528273202734        2.10750957023397
C            8.48871263260567        0.84701835910698        0.53536308687389
C            7.13079437976950        0.63314054856074        0.64025072659486
C            4.72516589041720       -1.75068082623963        1.77748809760116
C            3.38365999582832       -1.96621461570873        2.00876316538767
C            2.41575958367526       -1.32576027219978        1.23326566346440
C            1.02178592268866       -1.50725654603548        1.46228858468583
C            0.09562144413228       -0.88056848739302        0.70136683617366
C            0.48206271723424       -0.01790761577920       -0.36640826138672
C            1.86264749750006        0.16915490958020       -0.62699619641158
C            2.83355241405694       -0.47378728214168        0.18144375013431
C           -2.51777776658596        1.22766266566938        0.11820087214268
C           -1.76457420465821        2.10041541165443        0.94665259883647
C           -2.35317996478635        2.79041634352798        1.96061105198506
C           -3.73194563634766        2.64344163870026        2.21239378419054
C           -4.49095076637628        1.82682258634568        1.43205502593463
C           -3.92268740998914        1.10472599959074        0.34983921042526
C           -6.98410291603668        1.25338215036667       -0.47648445688140
C           -8.34531887128409        1.15956838888289       -0.27445206137821
C          -12.28157573789222        1.25645116328203        0.47348309961309
C          -12.97015855489660        2.33541342231120        0.99245448903090
H          -12.92544588138770        3.99146315945194        2.35115785764355
H          -10.63961884383229        3.49126953511262        3.14154737599304
H           -9.41209611417099        1.56339984127813        2.23746460797066
H           -9.79452737460094       -1.72965544540822       -1.65251115056895
H          -10.97556464273871       -3.82002222033705       -2.17807002198069
H          -12.83181866791960       -4.59365986294317       -0.74433085747557
H          -13.48866564606724       -3.26002642358413        1.22794950577054
H          -12.29712446777607       -1.17914311728091        1.76755641795516
H           -8.50422660426568       -2.04930747541737        0.77938481546031
H           -6.08239580587497       -1.87884583778297        0.39397961439724
H           -5.91146238338926       -1.35068938504959       -2.23828899739699
H           -4.82492792446140       -2.64106273905910       -4.01499243419811
H           -2.38003639833381       -2.52400454691762       -4.32584336609309
H           -1.01981080590654       -1.06899352538488       -2.89003980567556
H           -0.78378793372923        1.94355085497820       -2.82570887613193
H            1.61189194495880        2.25906570265112       -3.30136079682682
H            3.96638214669884        1.75747105601604       -2.79352277512274
H            5.64285820917713        0.65585513777622       -1.39539375111034
H            7.09653688955154       -2.73706380917753        0.48591913760274
H            9.51380464860770       -2.36427175167997        0.27575470270638
H            9.68603850382276        0.98398091791696       -1.94032011748759
H           10.51277723452836        2.92987906889691       -3.19390721553907
H           12.52253291603959        4.14194615738554       -2.42476135758331
H           13.69228261069310        3.39409350986031       -0.38218084667338
H           12.85703329577616        1.46025967251298        0.88454847678788
H           13.06368095130149       -0.78828934845043       -0.73607594554580
H           14.65728062876515       -2.33946147778973        0.31086688910334
H           14.14848780516576       -3.35099406768490        2.50585890135337
H           12.03227176343927       -2.78890201810536        3.64823920579064
H           10.44452612357345       -1.22385402564215        2.61242170659496
H            8.88250223356749        1.85251422916771        0.56559294418963
H            6.46619504696470        1.47541776645128        0.76829346705629
H            5.46223267003754       -2.23407257141206        2.40324956984198
H            3.06994525391310       -2.62702182798777        2.80435435230382
H            0.72067510734875       -2.16381512152159        2.26652978020278
H           -0.95920073374736       -1.02537231377318        0.88442083607362
H           -0.70632516540481        2.20400816898521        0.75690384105782
H           -1.76820491783868        3.45021883758454        2.58450092374389
H           -4.18022514522110        3.18510571074274        3.03259470519153
H           -5.54598892904446        1.71111512268157        1.63109255551730
H           -6.55715052428214        2.17899273845314       -0.83497658785020
H           -8.98249079762091        2.00945579110238       -0.47076118802725
H          -12.73634029122958        0.63120629811299       -0.28097640053804
H          -13.96827239395284        2.54899003009248        0.63902382916851
