112
 energy: -169.607390745131 gnorm: 0.000050631111 xtb: 6.7.1 (edcfbbe)
C          -11.85795362350258        3.79441351978655       -2.18066147911421
C          -10.62925035745969        3.90391283751062       -1.55006906787876
C          -10.10753920901542        2.83776384763144       -0.84409099530131
C          -10.81069766399287        1.63546205925612       -0.76600820882989
N          -10.28362216246779        0.55073224285454       -0.05621499408290
C          -11.13438586988976       -0.28302340109429        0.67812631256466
C          -10.90243967558217       -1.65747107105038        0.73373827071726
C          -11.74355152182382       -2.47571176973230        1.46195872659055
C          -12.82928778548234       -1.94301382880907        2.13778033387976
C          -13.06628744663574       -0.57909304752868        2.08261121010272
C          -12.22671992600805        0.24882504057419        1.36350529578525
C           -8.91161372103485        0.29783000188185       -0.08531316767020
C           -8.25282513840803       -0.19481811011845        1.04412930813707
C           -6.90139192751101       -0.45277685471040        1.00877867883370
C           -6.14540004471453       -0.21057572280367       -0.14402407978161
C           -4.71145826419144       -0.47475360779698       -0.17425231586431
C           -4.22000784389319       -1.76892698020886        0.16819726245762
C           -5.08447401319007       -2.83225839715780        0.46370383341872
C           -4.60305559079551       -4.06207606698668        0.88249788372434
C           -3.24124728293239       -4.25395995063479        1.03061412651681
C           -2.36080128863624       -3.23922234178192        0.68700731929001
C           -2.81581369156929       -2.01228568024085        0.18992413773406
C           -1.90413546561098       -0.99216776959681       -0.23123105938523
C           -0.48957816479530       -1.28476673481987       -0.30885225275641
C           -0.06577502947308       -2.39045942355593       -1.06566456554937
C            1.26149238031639       -2.65238873182110       -1.27760701726422
C            2.25992856616949       -1.84076642685517       -0.70878155948241
C            3.63608146031298       -2.09067920945103       -0.90707388905633
C            4.58882639845561       -1.29355840324831       -0.34942650551156
C            4.23871091565257       -0.18336566999042        0.46283345454911
C            5.20679552887203        0.65920626831369        1.05409037966693
C            6.63406023463179        0.54371194139222        0.73932386091468
C            7.58450343507933        0.50248487571086        1.75946544058227
C            8.93045874495327        0.41527311209152        1.47605360335298
C            9.37403943842980        0.38828202927956        0.15311383792391
N           10.73797416423265        0.30335362667808       -0.13995414635775
C           11.17100118820334       -0.44578321900481       -1.23937477188897
C           10.53164211828019       -1.63837215273609       -1.57833708976451
C           10.95954276554146       -2.37244501544007       -2.66709115971531
C           12.03193292999043       -1.93832791656921       -3.42907321479710
C           12.67311453001333       -0.75677154760002       -3.09441215033552
C           12.24755529608417       -0.01111097815445       -2.01254529339944
C           11.66904572881629        0.96864515338587        0.66507395135926
C           12.90656801267182        0.38838468713371        0.94343992778600
C           13.82326560142394        1.05128849016721        1.73574432587100
C           13.52206668021756        2.29393749738806        2.26896250098918
C           12.29285300975928        2.87291348909910        1.99884430322855
C           11.37244768360379        2.22185424265400        1.20110171995795
C            8.42962381640971        0.45256487170258       -0.87270930853750
C            7.08464625396519        0.52349745367555       -0.58164315207285
C            4.79872200771646        1.64936828059546        1.94682253764275
C            3.46897113196730        1.86094478385807        2.22894890199996
C            2.47624555288784        1.08335962021661        1.61663867453592
C            1.09783637801856        1.28006634017344        1.87793965875513
C            0.14736201882329        0.52941334357798        1.25960050689538
C            0.49604741222881       -0.48281103127865        0.33073529627037
C            1.87032018564527       -0.75506315349926        0.11449524399668
C            2.86336939059539        0.04992372997188        0.72858563746586
C           -2.40860559159021        0.28585871073742       -0.63985347158792
C           -1.57251930742797        1.26550526635451       -1.18755478478733
C           -2.05000332171218        2.52142373839786       -1.52466253921152
C           -3.38224020579487        2.83066751264172       -1.31288281628770
C           -4.24713983666423        1.85868890764574       -0.83926197311871
C           -3.80472649766819        0.55851838545931       -0.55577874581852
C           -6.81275077079015        0.29206563801531       -1.26702478803545
C           -8.16774820873546        0.53167740952829       -1.24478769355273
C          -12.04602310033637        1.52945046500491       -1.40515384099580
C          -12.56258622247446        2.60413350380345       -2.10205410490037
H          -12.26362579028169        4.63074463691665       -2.72921495818929
H          -10.07589434418498        4.83004396536736       -1.60084943535572
H           -9.15521167366235        2.92928660651163       -0.34265262745124
H          -10.06393825571044       -2.07645512958535        0.19696948578143
H          -11.55471056176949       -3.53862451425857        1.49445566938283
H          -13.48628029031960       -2.58620950802260        2.70310613794808
H          -13.90727560494164       -0.15454480657361        2.61081000042015
H          -12.40722965343451        1.31334161774437        1.33050116743494
H           -8.81217748158704       -0.36074538061528        1.95339419443515
H           -6.40311461832730       -0.80778346733177        1.89910967298026
H           -6.14947095168266       -2.69259046204356        0.35798072435201
H           -5.29524238115223       -4.86010684600413        1.10762899601479
H           -2.85797785192687       -5.19322022045963        1.40089039122457
H           -1.30065915064074       -3.40015245154715        0.81004939443259
H           -0.81663332258898       -3.00008639458537       -1.54851388725453
H            1.55768146106752       -3.47913578777485       -1.90765462883669
H            3.92166823288743       -2.94129762118477       -1.51029593079017
H            5.63407257268269       -1.51893198885679       -0.49859232522516
H            7.25632738483603        0.50588003042278        2.78876490527706
H            9.65141439311903        0.36009132036683        2.27870248724553
H            9.70260068344202       -1.98509729793988       -0.97890225935854
H           10.45703517099672       -3.29536872431872       -2.91692003007713
H           12.36556402094907       -2.51649174957484       -4.27730620921331
H           13.50660883217314       -0.40747773813785       -3.68600745988488
H           12.74259121852738        0.91530924384145       -1.76034152551104
H           13.13985228500921       -0.58510745720863        0.53745416357468
H           14.77697922599814        0.58959821124444        1.94544483823295
H           14.24000630478409        2.80734084897646        2.89030843322542
H           12.05147228886126        3.84409033704725        2.40539384593306
H           10.41898773650830        2.68025132791381        0.98277611455515
H            8.76246700450561        0.45552464638624       -1.90050768408399
H            6.36874960451824        0.60082019609402       -1.38705205934931
H            5.55004408719863        2.28059071028708        2.40050872283676
H            3.17533673353946        2.64109358131845        2.91659856364619
H            0.81385976775407        2.04446830601994        2.58737028739563
H           -0.89759304982038        0.69243947301797        1.47806908275376
H           -0.52860026442452        1.04265508105117       -1.34540825390243
H           -1.37547505390213        3.25787792277324       -1.93527827617203
H           -3.75455636505661        3.82145040833257       -1.52808947718540
H           -5.28505562351627        2.10928530431302       -0.68158645180297
H           -6.25818592996238        0.45183535102948       -2.18018895798927
H           -8.66850735666746        0.89157283694755       -2.13183974681405
H          -12.59205794418586        0.59878267117042       -1.35453180398915
H          -13.51883920212250        2.50819571427495       -2.59487280979799
