112
 energy: -169.607357781420 gnorm: 0.000075233952 xtb: 6.7.1 (edcfbbe)
C          -12.06434761231613        2.58440742001795        3.17714358190746
C          -10.80825110033088        2.05713113933302        3.42921282347562
C          -10.22054510789174        1.18863042344217        2.53049914034324
C          -10.88474849687335        0.83950276105362        1.35459303981634
N          -10.29361784482995       -0.03815097105175        0.43883123220717
C          -11.08441432217662       -0.97224851906807       -0.24033676755912
C          -10.82128741640726       -1.28509063365709       -1.57405447027204
C          -11.60051425044819       -2.21239288728855       -2.23753762202401
C          -12.65505779678465       -2.83509472000084       -1.58979610884641
C          -12.92413897208361       -2.52364888241190       -0.26690367744602
C          -12.14616353560218       -1.60329484683009        0.40779974227172
C           -8.91917431285547        0.01350267898205        0.20533465026684
C           -8.19653372061345       -1.15397069601455       -0.05474621060402
C           -6.84401912292162       -1.09889199954958       -0.30159643059296
C           -6.14925003541128        0.11599225788110       -0.27542878333989
C           -4.71401515634086        0.16208367008407       -0.53088774527591
C           -4.19302916999087       -0.39407455298665       -1.73664979862983
C           -5.03351230645588       -0.90398909268059       -2.73569409242430
C           -4.52296966578997       -1.52277605694997       -3.86577405471480
C           -3.15513770595056       -1.65967115926075       -4.01633110569909
C           -2.29913994653756       -1.11238045616081       -3.07211583762126
C           -2.78534196248258       -0.41741640773117       -1.95859445363565
C           -1.90198747835956        0.20400430847693       -1.01929032213716
C           -0.48194354245865        0.25023802287624       -1.29635645680519
C           -0.04512053680651        0.80444837491470       -2.51110942624874
C            1.28549489444477        0.96910254663173       -2.79096764287460
C            2.27363309396340        0.54693216442775       -1.88363762730248
C            3.65315956187948        0.68961498403887       -2.15439627232054
C            4.59676200003783        0.26855022579899       -1.26821835747084
C            4.23387996156238       -0.33661373790124       -0.03621802299142
C            5.19257557791656       -0.78882045530094        0.89757100254085
C            6.62744360330982       -0.53964930144132        0.72395147439889
C            7.54412892470616       -1.58368334235249        0.84706433828445
C            8.89714569095836       -1.36451121556563        0.70349904070801
C            9.38246118425357       -0.08026095579703        0.45295137850317
N           10.75398825232243        0.14740304842491        0.30953049839907
C           11.21359045117194        1.09230416017345       -0.61415148740861
C           10.56725374574746        1.25664643409420       -1.83938806253516
C           11.02149275748952        2.19449050902856       -2.74573203570330
C           12.12754722917149        2.97560993478841       -2.45319781416180
C           12.77621152925005        2.81307727030546       -1.23994127234513
C           12.32460256211517        1.88398892584309       -0.32320792034301
C           11.66690976391642       -0.57391060687347        1.08698029642351
C           12.88245264216922       -0.99238181980193        0.54579772772642
C           13.78006082948781       -1.70295135835432        1.31846398342400
C           13.48106517299136       -2.01468947080498        2.63475044639784
C           12.27384465167066       -1.60407406143903        3.17621075248330
C           11.37300018966988       -0.88609749320838        2.41437086814792
C            8.47220997946538        0.97317506101727        0.35280985995626
C            7.11930369047693        0.74342094626569        0.48048662299389
C            4.77087087274211       -1.48309224922339        2.03054966603133
C            3.43679956582478       -1.70105225736382        2.28636832324498
C            2.45421263241516       -1.22602405700705        1.40712669695147
C            1.07229638620689       -1.43589557355932        1.63919411017831
C            0.13140474667053       -0.95938020286446        0.78140931048164
C            0.49310684312844       -0.23144175980471       -0.38017258040837
C            1.87089858157150       -0.07076838773831       -0.67338823389357
C            2.85457897236964       -0.54011672459303        0.23421505624771
C           -2.43788502723318        0.82931282765946        0.15368899683819
C           -1.62971140163129        1.56804142915865        1.02509839795362
C           -2.13576951415572        2.12146734084940        2.19027627081860
C           -3.46848010769703        1.94047287716093        2.51543086420085
C           -4.30666930762535        1.27203294701253        1.63852399341941
C           -3.83595128823856        0.76041289188649        0.42100309129562
C           -6.87897921432593        1.27803484701412       -0.00067533543721
C           -8.23637422238536        1.23245416118310        0.22356202480579
C          -12.14791481728113        1.37560012987363        1.10398594842347
C          -12.72998501679523        2.23754036477052        2.01261924392696
H          -12.52150628826558        3.26057408941552        3.88335530744208
H          -10.28498783804052        2.31706921260374        4.33757319615127
H           -9.24665294505640        0.76849194071396        2.73485308676446
H          -10.00708414927855       -0.79169090499707       -2.08433394651499
H          -11.38768804972320       -2.44424243206573       -3.27071129663227
H          -13.26307526122437       -3.55774341764512       -2.11232501078419
H          -13.74123884441018       -3.00787421979276        0.24725594206172
H          -12.35083611215315       -1.36990722256050        1.44246175894728
H           -8.70754592689790       -2.10577416837948       -0.04974814044281
H           -6.29647368760159       -2.01326836627969       -0.47798756159969
H           -6.10303181857990       -0.80879868359716       -2.62591541462516
H           -5.19722700815138       -1.91019951935203       -4.61538611478163
H           -2.74784218333300       -2.18054133480039       -4.87016026244055
H           -1.23387754013115       -1.23018943538895       -3.19931299764513
H           -0.78880912778200        1.17068526081464       -3.20496557504086
H            1.59166191790379        1.44546898067245       -3.71159060434528
H            3.94805417215222        1.13511914648925       -3.09437936524812
H            5.64436767298979        0.36692104065899       -1.50979148057809
H            7.18301010167136       -2.58620909582297        1.02516398979036
H            9.59098180724819       -2.18923228741069        0.77729400617621
H            9.71183057142569        0.64059552213977       -2.07512114132449
H           10.51288250389413        2.30977192769961       -3.69164624021718
H           12.48150086920886        3.70533198282107       -3.16545224406549
H           13.63637364523731        3.42110545151568       -1.00092376367325
H           12.82595043687510        1.76694602135497        0.62646386390150
H           13.11351474754355       -0.75985782862754       -0.48351365124765
H           14.71662245618202       -2.02343936167748        0.88620682220865
H           14.18368202112910       -2.57340668086287        3.23414282219162
H           12.03462957900777       -1.83729520466614        4.20340019160411
H           10.43684407062127       -0.55785292231869        2.84186450262107
H            8.83765297940542        1.97539497136692        0.18203544740727
H            6.43052780646970        1.57402522881269        0.42659226024744
H            5.51550898509004       -1.83069622037345        2.73301482739539
H            3.13250799978008       -2.23342023670551        3.17613752683766
H            0.77839723260480       -1.99267875154919        2.51775827939854
H           -0.91587332208579       -1.13980262294963        0.97307082365548
H           -0.58529372470902        1.70452623037053        0.79029885067994
H           -1.48256127015513        2.67703008504875        2.84650590372286
H           -3.86253919619203        2.32865143395756        3.44314677226310
H           -5.34509139564015        1.13900731186246        1.90099433299410
H           -6.37241284992129        2.23210886496465       -0.01121465227692
H           -8.78624372091927        2.14511025847911        0.40212861005648
H          -12.66406146383465        1.11434053730294        0.19172079650626
H          -13.70726855883496        2.64804628783071        1.80551162853192
