  68
       -100.15014607
 O          3.9635156631       -0.1725934999       -2.4959681457
 P          3.6552953602       -0.0866144275       -1.0638080822
 C          4.3982904607       -1.4314277616       -0.0824070898
 C          4.6287248591       -2.6272569796       -0.7479994266
 C          5.1746096469       -3.7031770831       -0.0718909881
 C          5.4915453357       -3.5831931475        1.2715452755
 C          5.2696077722       -2.3870290519        1.9351133676
 C          4.7235906796       -1.3090286920        1.2615800518
 C          4.2496013822        1.4525652396       -0.2866268882
 C          5.3627886913        2.0462947364       -0.8648652495
 C          5.8917706441        3.2036203814       -0.3231676808
 C          5.3064326831        3.7692656006        0.7981217476
 C          4.1892240811        3.1828213585        1.3706347610
 C          3.6576062698        2.0250172588        0.8310245754
 C          1.8722631347       -0.1485348246       -0.6982552939
 C          1.3502410750       -0.5790770180        0.5141371798
 C         -0.0165632166       -0.5519010223        0.7189815720
 C         -0.8857390895       -0.1036765810       -0.2709713393
 Si        -2.7586255758       -0.0172226718        0.0137356307
 C         -3.6220608093       -0.6444556005       -1.5503981645
 C         -4.7859862804       -0.0503218769       -2.0273277239
 C         -5.4179493539       -0.5288248600       -3.1610850294
 C         -4.8939669875       -1.6159562512       -3.8398828229
 C         -3.7342909209       -2.2180793108       -3.3806967989
 C         -3.1066876841       -1.7343380211       -2.2475533621
 C         -3.2550325791        1.7757002327        0.3724345867
 C         -2.4283638954        2.8437103165        0.0382609892
 C         -2.8136563197        4.1490122158        0.2863776952
 C         -4.0393072820        4.4100075421        0.8752447388
 C         -4.8733828218        3.3588661484        1.2183637822
 C         -4.4815634239        2.0563198933        0.9691615311
 C         -3.2403281640       -1.0853059367        1.5030960602
 C         -3.0667887434       -0.6060297808        2.7990559887
 C         -3.4057092537       -1.3759732042        3.8966331077
 C         -3.9282413932       -2.6458719859        3.7162477069
 C         -4.1100496174       -3.1373201695        2.4345299097
 C         -3.7684046905       -2.3622145660        1.3407956042
 C         -0.3465418781        0.3038913969       -1.4887969953
 C          1.0177608003        0.2846138780       -1.7027510999
 H          4.3821706558       -2.6903639118       -1.7982110542
 H          5.3534126720       -4.6342092015       -0.5893544861
 H          5.9179915091       -4.4215955788        1.8025814410
 H          5.5254387491       -2.2941059298        2.9808308270
 H          4.5606770050       -0.3711665437        1.7742081629
 H          5.7934450986        1.5906084434       -1.7450902465
 H          6.7584214590        3.6652059692       -0.7730778482
 H          5.7176565351        4.6726125577        1.2242353117
 H          3.7291316206        3.6308858275        2.2396958950
 H          2.7776268675        1.5743001001        1.2683732773
 H          2.0110898585       -0.9434823089        1.2888561505
 H         -0.4212186208       -0.8880199020        1.6634262641
 H         -5.1969775621        0.8017164721       -1.5046437551
 H         -6.3206180572       -0.0532681627       -3.5173279609
 H         -5.3861453181       -1.9913869549       -4.7253140398
 H         -3.3188085876       -3.0646775379       -3.9083997865
 H         -2.1971887447       -2.2031769205       -1.8977284468
 H         -1.4685780177        2.6475758269       -0.4186197745
 H         -2.1569761226        4.9651153123        0.0204285915
 H         -4.3427637642        5.4287394533        1.0686592193
 H         -5.8299889378        3.5561709340        1.6810080798
 H         -5.1330375529        1.2387849900        1.2456867941
 H         -2.6665499544        0.3879255013        2.9450158321
 H         -3.2647875937       -0.9862417652        4.8948672827
 H         -4.1955334301       -3.2490461816        4.5718718783
 H         -4.5206885974       -4.1262574732        2.2885910834
 H         -3.9171774008       -2.7490730811        0.3426082464
 H         -1.0092214433        0.6358338103       -2.2758952609
 H          1.4436674130        0.5955198517       -2.6464889973
