120
 energy: -189.807783865615 gnorm: 0.000141149319 xtb: 6.7.1 (edcfbbe)
N           12.83891098765492       -6.53288608323731       -0.05281310299173
C           11.86646275612993       -5.92476877469147       -0.04946876899594
C           10.66900148032060       -5.17628995020512       -0.04753501917500
C           10.55914195048264       -4.03305609165377        0.74614955148311
C            9.38814710196645       -3.30602132052637        0.74278882056315
C            8.30192311683306       -3.69822825897601       -0.04228306880499
C            7.05675961659334       -2.92335249527369       -0.04017903127962
C            5.81234519200205       -3.57509726282317       -0.06474755680445
C            4.65521826124600       -2.84675061315057       -0.05740049098716
C            4.68267896337894       -1.44160968962724       -0.03518955204018
C            5.92518917541082       -0.76512617621853       -0.01627397720398
C            7.08941290432456       -1.54028865020872       -0.01546167996743
C            5.94380070323700        0.68022393814030       -0.00014046685616
C            7.12782292036485        1.42479697320248        0.00834452229007
C            7.13107829240350        2.80821697593367        0.03314391758439
C            8.39608719764832        3.55019462411127        0.04680663080634
C            8.54031432288840        4.69307641818722        0.83601747828368
C            9.72658423004424        5.39455404517337        0.85663855875496
C           10.80113666264720        4.96532608353622        0.07544178727816
C           12.01760070392077        5.68236326847206        0.08947515070169
N           13.00518412434721        6.26548909079265        0.10106509510598
C           10.66857539141565        3.82597477579822       -0.72034208858516
C            9.47881612136446        3.13006175340266       -0.72856162087176
C            5.90395931540224        3.49219612242383        0.04738004334601
C            4.72831068690289        2.79419087557998        0.03102877158444
C            4.71926637036817        1.38887313163771        0.00952192689114
C            3.46845269719523        0.70238749688581       -0.00313118684444
N            2.31980183626559        1.36103584618578        0.00873721212292
C            1.14031758976926        0.74327221470171       -0.00706773553894
C           -0.07097864987923        1.42577106029011       -0.00758142036420
C           -1.28548695109423        0.75392842625929       -0.03074452625845
C           -2.55398436249932        1.49211593405845       -0.09544112917217
C           -3.51500483879589        1.13843685666216       -1.04348101299726
C           -4.75362990004631        1.73595956053445       -1.04859792139158
C           -5.07269162252003        2.70856903178481       -0.09970477981405
N           -6.37316736065611        3.22175467352812       -0.05308710952524
C           -7.43698927528904        2.32779780427211       -0.23336707101288
C           -7.36719123604013        1.04568056871368        0.31273879157642
C           -8.40156825677679        0.15138444403876        0.12454527643023
C           -9.51748216095976        0.51607134933550       -0.61085550183901
C           -9.59422289495343        1.78974725371774       -1.15044927467991
C           -8.56527872746137        2.69350322391537       -0.96570423631995
C           -6.60343777966047        4.57370696262931        0.19996486901522
C           -7.73377053907682        4.98256175784929        0.90898660541603
C           -7.95447132876988        6.32388843083300        1.15175592683388
C           -7.05474310434901        7.27718568220297        0.70312753001773
C           -5.92844620923421        6.87626096619944        0.00296186925021
C           -5.70197009344573        5.53830857109558       -0.25248965279794
C           -4.09164829724414        3.12012512652652        0.80122207761120
C           -2.84802353365534        2.52055542113184        0.79582680147579
C           -1.30187649999188       -0.65251064759116       -0.02536454598319
C           -2.58745480765488       -1.36909692124919        0.03674880661564
C           -2.94925240867091       -2.28697013196541       -0.94508837270643
C           -4.19955943862677       -2.87070673501413       -0.93591898323334
C           -5.10868009080722       -2.57255164436996        0.07766389987482
N           -6.39685033812618       -3.12909029916206        0.05138404133861
C           -7.11123070704977       -3.09082006716467       -1.15105615325385
C           -7.94940823563408       -4.14206148132538       -1.52089651739394
C           -8.65844260600368       -4.07988774781629       -2.70475005204994
C           -8.53962309482695       -2.97936273633761       -3.53800141554414
C           -7.69839047011160       -1.93831387407375       -3.18034741363859
C           -6.98745989703809       -1.98882852247494       -1.99800764831713
C           -6.95966527328301       -3.64517466921470        1.21785757922400
C           -8.33712625126164       -3.59271599303613        1.43964758138157
C           -8.87599119739688       -4.10457326464374        2.60358965937254
C           -8.05911379278323       -4.67070159153073        3.56842707367381
C           -6.69115753366788       -4.72406036350523        3.35560546488460
C           -6.14258819212639       -4.22102199672644        2.19284015252781
C           -4.72677373016013       -1.70364712792812        1.09850991725927
C           -3.48635995329564       -1.10380758787247        1.06857046520964
C           -0.10674730792785       -1.35539124105537       -0.04352590202380
C            1.12246531770523       -0.70395924543394       -0.03830138966209
N            2.28484862412281       -1.35175150086139       -0.04899783949089
C            3.45038692127674       -0.72283617805235       -0.03003768431974
C            8.42326559500255       -4.84531245039123       -0.82925451867703
C            9.59077136834851       -5.57784777542734       -0.83832076110923
H           11.39359901117149       -3.72893503831748        1.36109772050409
H            9.30127702368117       -2.43448797160182        1.37481393826324
H            5.77432055649445       -4.65412946984219       -0.06166185174794
H            3.69123773485443       -3.33221524418945       -0.06573184289697
H            8.05367147854357       -1.05726795656648       -0.02110796026719
H            8.07905180220054        0.91674911971271        0.02163168897429
H            7.71804312181471        5.01887023778971        1.45561673751126
H            9.83476096453248        6.27415173028252        1.47430882529488
H           11.50042603194541        3.50032521941208       -1.32775571446983
H            9.37491055398057        2.26153590215844       -1.36215661473760
H            5.89411245755061        4.57185205016985        0.04377515624873
H            3.77729120762515        3.30464903155235        0.03174191762032
H           -0.04760151928503        2.50475787659439       -0.01845819401677
H           -3.28066722175397        0.39158031972727       -1.78665650881200
H           -5.49471247760121        1.44962224093611       -1.78067215036187
H           -6.49655477134555        0.75984418339717        0.88492983821544
H           -8.33853933978668       -0.83197105316790        0.56451742160009
H          -10.32162700456731       -0.18769671770232       -0.76240403331475
H          -10.45968387118211        2.08095170407212       -1.72718402950297
H           -8.62299559242092        3.68368791313109       -1.39363289769958
H           -8.43010081382159        4.24132177317933        1.27274968653514
H           -8.83204701965249        6.62637478621458        1.70391371566698
H           -7.22986039218538        8.32415310328973        0.89781172129226
H           -5.22410904895882        7.61247453181586       -0.35535407043282
H           -4.83010053476184        5.22965469642848       -0.81044569038587
H           -4.32198393793094        3.88916821963156        1.52399995043498
H           -2.10833142230633        2.81918485901017        1.52442643797660
H           -2.25351659600685       -2.51754125249657       -1.73901658644640
H           -4.48786106778928       -3.55673210684988       -1.71910927751104
H           -8.03536233704407       -5.00563153408194       -0.87768260943655
H           -9.30345358312973       -4.90070924142595       -2.98180838494385
H           -9.09734815392446       -2.93480271021840       -4.46097640704204
H           -7.60254909124005       -1.07488927777644       -3.82197695517309
H           -6.34040519197518       -1.17221546072236       -1.71343992866852
H           -8.98309522861848       -3.14808587857169        0.69660365179693
H           -9.94336615986673       -4.05325231568879        2.76084236075941
H           -8.48480622398164       -5.06766721039065        4.47717032231009
H           -6.04531725691773       -5.16919546657924        4.09804908432246
H           -5.07677465573343       -4.27582267096300        2.02669552014902
H           -5.41789797827938       -1.49061566699821        1.90123370513550
H           -3.20753520934318       -0.41126122151020        1.84912425013899
H           -0.11216428332807       -2.43475119130539       -0.03587960645296
H            7.59844085493889       -5.14998348621385       -1.45616797974598
H            9.68136714293078       -6.46065901902775       -1.45423784139147
