  78
       -140.02586887
 O         -6.1339377347       -3.1787981554       -0.7824903540
 S         -5.0552405116       -2.2346656792       -0.6470970928
 O         -4.9439895001       -1.1828841634       -1.6246612538
 C         -5.0865817223       -1.4803949070        0.9827301884
 C         -5.5720938658       -2.1879369220        2.0640583778
 C         -5.5242618501       -1.6031879084        3.3197059437
 C         -4.9868026601       -0.3339957684        3.4745797403
 C         -4.4994356530        0.3670411838        2.3816024980
 C         -4.5481682826       -0.2170649677        1.1261043791
 C         -3.4820474915       -3.1127673211       -0.5962780096
 C         -3.3969326654       -4.4942810299       -0.6263537596
 C         -2.1378895258       -5.0827897650       -0.5405508869
 C         -1.0046536121       -4.3076298004       -0.4076810903
 C         -1.1027483547       -2.9085759404       -0.3640540883
 C          0.0297498967       -2.0451564568       -0.1995697116
 N         -0.1842344587       -0.7419348700       -0.0721216091
 C          0.8197814023        0.1082239736        0.0597917326
 C          0.5470437324        1.5128870898        0.1657425875
 C          1.5740881864        2.4690391759        0.1286796420
 C          1.2770928226        3.8142876988        0.1790648933
 C         -0.0440668648        4.2417759758        0.2648762772
 C         -1.0516936476        3.2928308301        0.3197355603
 S         -2.7735496526        3.8201961099        0.4735865970
 O         -2.8509162575        5.2302989571        0.1752439161
 O         -3.2538691343        3.4052725735        1.7708804194
 C         -3.6885234901        2.8946729347       -0.7763963201
 C         -5.0292321645        2.6521697139       -0.5429304842
 C         -5.7617853583        1.9357375007       -1.4758392272
 C         -5.1458706407        1.4633183310       -2.6230643122
 C         -3.8033101066        1.7194319913       -2.8489470582
 C         -3.0676249527        2.4474703896       -1.9264319776
 C         -0.7828684468        1.9482653366        0.2810719938
 N          2.0930008008       -0.3510808833        0.0689920234
 C          2.2783661132       -1.6628112681       -0.0373144056
 C          3.6516628963       -2.1465171336       -0.0189565056
 C          3.9664559532       -3.4849160478       -0.2656559584
 C          5.2853130378       -3.8974816569       -0.2732969995
 C          6.3079615356       -2.9859396149       -0.0423624097
 C          5.9864966323       -1.6639391123        0.2112289990
 S          7.2935553499       -0.4517879827        0.5228332139
 O          8.4364193790       -0.7985863626       -0.2852083080
 O          7.4996013955       -0.3519975439        1.9468636247
 C          6.5589077499        1.0778809574       -0.0790612796
 C          6.4549418372        1.2697459367       -1.4434312526
 C          5.8082045782        2.3994007369       -1.9168322432
 C          5.2695143282        3.3129874573       -1.0232124528
 C          5.3846609279        3.1114332585        0.3436346749
 C          6.0331640190        1.9838861799        0.8217737153
 C          4.6810130722       -1.2362924645        0.2332792570
 N          1.2923074563       -2.5379013756       -0.1723852182
 C         -2.3723306283       -2.3210791455       -0.4717747244
 H         -5.9907838135       -3.1699868448        1.9088897433
 H         -5.9054998815       -2.1387076556        4.1761107102
 H         -4.9505808318        0.1149874033        4.4558736987
 H         -4.0886481319        1.3599945600        2.4963312925
 H         -4.2005856202        0.3033056453        0.2475879449
 H         -4.2967293623       -5.0794361197       -0.7243728445
 H         -2.0530799618       -6.1586300149       -0.5731385883
 H         -0.0276286342       -4.7596111437       -0.3297203335
 H          2.5956616673        2.1275572766        0.0482131983
 H          2.0714293196        4.5445005562        0.1453063323
 H         -0.3086263204        5.2861755615        0.2896530844
 H         -5.4725972511        3.0125655977        0.3721493649
 H         -6.8060373773        1.7323235439       -1.2973652529
 H         -5.7096643457        0.8840181508       -3.3356317209
 H         -3.3243539766        1.3478647318       -3.7415333043
 H         -2.0221557681        2.6600554512       -2.0956606251
 H         -1.5784443497        1.2207651863        0.3386549106
 H          3.1647774555       -4.1818894746       -0.4558337126
 H          5.5256739542       -4.9320259284       -0.4661605087
 H          7.3454839682       -3.2790345967       -0.0618377709
 H          6.8862403095        0.5401370110       -2.1109421431
 H          5.7198273726        2.5646434045       -2.9797498195
 H          4.7588342003        4.1883112493       -1.3963526289
 H          4.9678830561        3.8261676110        1.0372763959
 H          6.1421417501        1.7905628438        1.8776051428
 H          4.4311596394       -0.2072668934        0.4388887561
 H         -2.4613863815       -1.2460088095       -0.4676376131
