  86
       -129.60920917
 C          2.8859550863        3.9124016971       -0.3676042612
 O          3.0861406722        2.5195751864       -0.2722770242
 C          2.2209757354        1.6422464760       -0.8222600788
 C          1.0491909900        1.9744511104       -1.5024706927
 C          0.6173828291        3.2866225389       -1.7623108592
 N          0.1546231197        4.3075555989       -2.0251035470
 C          0.1690635945        0.9553619513       -1.9732352217
 C         -1.0569050978        1.3305578888       -2.7439463037
 C          0.4389968147       -0.3450664286       -1.6764662735
 C          1.5820550709       -0.7201817566       -0.9452727972
 C          1.7706507718       -2.0379681948       -0.4631650065
 Se         0.5452645053       -3.4549298926       -0.9364477036
 Se        -0.8644660561       -3.3625932351        0.8992270744
 C         -1.9411453685       -1.8348997824        0.4136359867
 C         -3.0030133198       -1.9790544379       -0.4655037558
 C         -3.2761558242       -3.2520759887       -1.1964399639
 N         -3.8706836324       -0.9927747613       -0.6561934621
 C         -3.7124541846        0.1890960641       -0.0764100207
 N         -4.7971714616        0.9933825472       -0.0871566784
 C         -5.9435799391        0.5437175811       -0.8595664121
 C         -6.9990227988        1.6383379642       -0.9044157462
 C         -7.5560486085        1.9028741716        0.4989344214
 C         -6.4740335430        1.6453700433        1.5529235445
 C         -5.0888107320        1.9326069313        0.9754014218
 C         -2.4492905941        0.5463416574        0.5132073228
 C         -1.9706849888        1.8761858616        0.6583967959
 O         -2.7243747672        2.8160223882        0.0479975634
 C         -2.4119257704        4.1896503222        0.1292019164
 C         -0.7679853681        2.1012016054        1.3290956819
 C         -0.1960980023        3.3668162224        1.5386037329
 N          0.3674012941        4.3452727103        1.7643704504
 C         -0.0059418331        1.0057422329        1.8334508985
 C          1.2565911536        1.2690590950        2.5918975939
 C         -0.4157594092       -0.2663435437        1.5740658670
 C         -1.5999253794       -0.5367123021        0.8617127653
 C          2.7980231054       -2.2784377254        0.4326558200
 C          2.9325319787       -3.5619726522        1.1832534083
 N          3.7592902915       -1.3814720529        0.6232769740
 C          3.7403760521       -0.2004934406        0.0285090881
 N          4.8938088612        0.5187028413        0.0929106784
 C          5.9464076055        0.0315109984        0.9634434799
 C          6.7988181509        1.2049028041        1.4383692589
 C          7.3981909761        1.9396907607        0.2442768058
 C          6.2698382546        2.3880734190       -0.6779970421
 C          5.4227478901        1.1853842139       -1.0806384087
 C          2.5425746307        0.2714483450       -0.6132564170
 H          3.7318363153        4.3620762777        0.1515916202
 H          2.8823782999        4.2481845549       -1.4075847960
 H          1.9638630002        4.2262696650        0.1269241479
 H         -0.7894620340        1.8815927490       -3.6454033951
 H         -1.7063583546        1.9727583406       -2.1513497874
 H         -1.6143192774        0.4403763760       -3.0247035125
 H         -0.2567980006       -1.1148850202       -1.9777526120
 H         -4.1550298853       -3.1314368926       -1.8232082040
 H         -2.4186592621       -3.5234024634       -1.8158908095
 H         -3.4411618286       -4.0642098249       -0.4874779068
 H         -6.3627241486       -0.3737813960       -0.4279386142
 H         -5.5889728143        0.2973819920       -1.8629706687
 H         -7.7998719812        1.3405284910       -1.5812193829
 H         -6.5452198580        2.5446398461       -1.3088720079
 H         -8.4112846919        1.2539999047        0.6923650340
 H         -7.9057913169        2.9343415813        0.5625452025
 H         -6.5044563469        0.6049118701        1.8820855174
 H         -6.6352753759        2.2737918476        2.4294176224
 H         -5.0585712555        2.9594765288        0.5984388899
 H         -4.3335972265        1.8288732804        1.7571888611
 H         -3.2255439628        4.6981592506       -0.3876995046
 H         -1.4715104943        4.4221602273       -0.3760741909
 H         -2.3703057590        4.5327749639        1.1658396009
 H          1.7153604050        0.3328683077        2.9002743172
 H          1.0535090423        1.8735053439        3.4758498405
 H          1.9701101064        1.8182079861        1.9796622229
 H          0.1952769725       -1.0981328196        1.8941125174
 H          3.8162502285       -3.5263004431        1.8127883154
 H          2.0497035492       -3.7328227500        1.8018880765
 H          3.0138268241       -4.3967233615        0.4874268599
 H          6.5749822325       -0.6978701970        0.4333487317
 H          5.4791396142       -0.4752165684        1.8071727900
 H          6.1708619014        1.8915912558        2.0091856862
 H          7.5861510619        0.8339375993        2.0958429770
 H          8.0724529904        1.2712513477       -0.2970156877
 H          7.9769781869        2.8017060161        0.5798519466
 H          5.6399930832        3.1052916577       -0.1539931914
 H          6.6687799428        2.8654495104       -1.5744292440
 H          6.0582652094        0.4719305071       -1.6310118924
 H          4.6113941087        1.4839529118       -1.7407362226
  86
       -129.60920236
 C          2.8999622367        3.9095817450       -0.3054989301
 O          3.1028933209        2.5156774267       -0.2333728958
 C          2.2373732623        1.6458078691       -0.7956293685
 C          1.0668834230        1.9861262591       -1.4739253288
 C          0.6411214116        3.3010292676       -1.7294919061
 N          0.1849015954        4.3251909778       -1.9922034196
 C          0.1836628667        0.9719598526       -1.9501825156
 C         -1.0368776349        1.3543744978       -2.7260063981
 C          0.4460879211       -0.3303502028       -1.6548768652
 C          1.5904635247       -0.7133611404       -0.9298038692
 C          1.7764385198       -2.0328892478       -0.4524455967
 Se         0.5405807671       -3.4416576145       -0.9211624339
 Se        -0.8641856502       -3.3558967728        0.9195607896
 C         -1.9483638342       -1.8361201582        0.4245556466
 C         -3.0100499019       -1.9898745574       -0.4530821917
 C         -3.2799357026       -3.2694081796       -1.1736516969
 N         -3.8806563603       -1.0075962251       -0.6515365036
 C         -3.7269099201        0.1791488389       -0.0803532313
 N         -4.8127518922        0.9819612024       -0.1049456273
 C         -5.9516768797        0.5265147831       -0.8851082376
 C         -7.0060439813        1.6213102671       -0.9486725689
 C         -7.5775106747        1.8961751518        0.4469079081
 C         -6.5072429459        1.6424915068        1.5137172705
 C         -5.1158271582        1.9266365161        0.9497104914
 C         -2.4675197931        0.5435190339        0.5130376580
 C         -1.9942570495        1.8757756324        0.6556011441
 O         -2.7473644551        2.8109040738        0.0373961527
 C         -2.4351932641        4.1851680588        0.1085149270
 C         -0.7958339679        2.1079066600        1.3315600055
 C         -0.2310548095        3.3764551910        1.5430877340
 N          0.3284070063        4.3570048063        1.7704648665
 C         -0.0311018647        1.0172155014        1.8420892550
 C          1.2266825019        1.2876187902        2.6058469824
 C         -0.4338383915       -0.2572158971        1.5835801516
 C         -1.6144650740       -0.5345976385        0.8681895847
 C          2.8115015683       -2.2800244246        0.4332108842
 C          2.9444270777       -3.5642828196        1.1831129541
 N          3.7820714151       -1.3909897472        0.6107864813
 C          3.7639910370       -0.2091880780        0.0166970828
 N          4.9262109285        0.4950650203        0.0525425297
 C          6.0025978570       -0.0101433315        0.8824990246
 C          6.8672561294        1.1526961784        1.3616254376
 C          7.4298347113        1.9197471036        0.1698314667
 C          6.2743610219        2.3874663790       -0.7082717288
 C          5.4216017804        1.1910592646       -1.1180348176
 C          2.5577841693        0.2729373923       -0.6018283375
 H          3.7374520742        4.3515215816        0.2336485459
 H          2.9098357046        4.2645291441       -1.3391335358
 H          1.9700314730        4.2123223412        0.1813397133
 H         -1.5967116691        0.4672332270       -3.0115734873
 H         -0.7617113773        1.9056434716       -3.6250567339
 H         -1.6868853807        1.9985533962       -2.1364432933
 H         -0.2544297011       -1.0960802117       -1.9557501573
 H         -4.1572032261       -3.1559375031       -1.8029401355
 H         -2.4215216199       -3.5448184013       -1.7887412247
 H         -3.4451929666       -4.0750203980       -0.4586226353
 H         -6.3755693232       -0.3874973735       -0.4508274743
 H         -5.5872654072        0.2725234806       -1.8830545148
 H         -7.7999825513        1.3190878179       -1.6316178876
 H         -6.5475078388        2.5244588091       -1.3549291122
 H         -8.4365493166        1.2508465214        0.6354174309
 H         -7.9250523442        2.9289913766        0.5004244697
 H         -6.5421103563        0.6035183247        1.8470831514
 H         -6.6777338565        2.2749264617        2.3855567184
 H         -5.0820421777        2.9515773641        0.5677614346
 H         -4.3687658928        1.8272983585        1.7398698927
 H         -3.2442658937        4.6889310304       -0.4200957761
 H         -1.4901135659        4.4131658759       -0.3902226052
 H         -2.4026271129        4.5380546525        1.1421806785
 H          1.6846762208        0.3542838755        2.9237328753
 H          1.0180191759        1.8984193547        3.4840385010
 H          1.9431572022        1.8328742578        1.9938167092
 H          0.1797464034       -1.0855890950        1.9076367911
 H          3.8241240414       -3.5275625613        1.8181595319
 H          2.0579624440       -3.7393081611        1.7951924815
 H          3.0335364825       -4.3974233547        0.4862440366
 H          6.6168207342       -0.7251117214        0.3171360593
 H          5.5592704981       -0.5380542349        1.7260746755
 H          6.2559249064        1.8229933265        1.9687985156
 H          7.6744715188        0.7664052835        1.9853053642
 H          8.0900180186        1.2676727429       -0.4076032577
 H          8.0158169725        2.7747909301        0.5106190352
 H          5.6562280413        3.0875503289       -0.1482827713
 H          6.6461544173        2.8901047469       -1.6025439290
 H          6.0459723759        0.4932628403       -1.7001562451
 H          4.5932450210        1.5008953712       -1.7510051845
  86
       -129.60915959
 C          2.8530549570        3.9144438939       -0.4229393541
 O          3.0551748727        2.5235267660       -0.3060172222
 C          2.1943407113        1.6368110282       -0.8474799482
 C          1.0196770449        1.9581278376       -1.5281280703
 C          0.5781999783        3.2664400161       -1.7909465488
 N          0.1121879451        4.2838818885       -2.0607396485
 C          0.1441529810        0.9317803267       -1.9912818518
 C         -1.0883090685        1.2966437762       -2.7565724004
 C          0.4245697178       -0.3656740926       -1.6916469532
 C          1.5695344373       -0.7299217177       -0.9580266352
 C          1.7636861766       -2.0443885648       -0.4692151832
 Se         0.5419365366       -3.4660248897       -0.9377601813
 Se        -0.8679292250       -3.3754852029        0.8972091814
 C         -1.9300944808       -1.8384204913        0.4093734775
 C         -2.9899832053       -1.9708867481       -0.4741270644
 C         -3.2688108686       -3.2380582473       -1.2128753040
 N         -3.8502912425       -0.9777189319       -0.6633999400
 C         -3.6865545480        0.1995039116       -0.0759730187
 N         -4.7649881028        1.0123124710       -0.0864518207
 C         -5.9095982723        0.5796280179       -0.8709500318
 C         -6.9569986228        1.6822386759       -0.9086875171
 C         -7.5211515568        1.9324690397        0.4944276951
 C         -6.4472584197        1.6551622121        1.5517425878
 C         -5.0570467166        1.9408473889        0.9855547712
 C         -2.4231681460        0.5453857780        0.5199223619
 C         -1.9378232629        1.8717979317        0.6732929832
 O         -2.6877527293        2.8193478670        0.0704953700
 C         -2.3737920469        4.1915177487        0.1667002309
 C         -0.7331349678        2.0861167230        1.3439945373
 C         -0.1555737588        3.3479477010        1.5605423310
 N          0.4128081752        4.3240333710        1.7850810923
 C          0.0237684885        0.9837966359        1.8406631326
 C          1.2919532299        1.2364435920        2.5932761763
 C         -0.3951343164       -0.2846631039        1.5776025702
 C         -1.5809965852       -0.5444715493        0.8641940714
 C          2.7870141230       -2.2745826358        0.4337735829
 C          2.9257778831       -3.5536733351        1.1912107483
 N          3.7401449050       -1.3697747664        0.6277231744
 C          3.7178889791       -0.1913709572        0.0278681993
 N          4.8647825037        0.5370926553        0.1044689398
 C          5.9065301974        0.0655997349        0.9963548567
 C          6.7368508349        1.2516570958        1.4789656708
 C          7.3523033344        1.9850142475        0.2922599845
 C          6.2365357223        2.4136768961       -0.6542226651
 C          5.4080749738        1.2003946505       -1.0642036556
 C          2.5226763631        0.2692349093       -0.6270344507
 H          3.7000513305        4.3739322431        0.0859050948
 H          2.8450529121        4.2335118482       -1.4682765001
 H          1.9330036949        4.2344506122        0.0709987699
 H         -1.7332393765        1.9451989704       -2.1651864642
 H         -1.6468464881        0.4024491413       -3.0227597951
 H         -0.8285748477        1.8378960285       -3.6664458476
 H         -0.2665285775       -1.1414015074       -1.9884790039
 H         -3.4306736786       -4.0551013214       -0.5099494189
 H         -4.1500739560       -3.1120745560       -1.8342493435
 H         -2.4155932854       -3.5059224120       -1.8387180470
 H         -6.3376789610       -0.3399833518       -0.4530119849
 H         -5.5504347911        0.3430737639       -1.8750626719
 H         -7.7555386370        1.3992332949       -1.5944804050
 H         -6.4940226301        2.5903972333       -1.2983240112
 H         -8.3813769997        1.2862970285        0.6742755795
 H         -7.8652019137        2.9651191848        0.5689768664
 H         -6.4860151622        0.6109222255        1.8678118616
 H         -6.6098344080        2.2737129416        2.4349909298
 H         -5.0188659822        2.9719148512        0.6210686241
 H         -4.3066521905        1.8234708693        1.7700945606
 H         -3.1907805001        4.7071205356       -0.3375565887
 H         -1.4376670820        4.4294167972       -0.3437354144
 H         -2.3236272305        4.5216123025        1.2071097930
 H          1.0990636748        1.8427862317        3.4781501037
 H          2.0066862596        1.7792176368        1.9765629299
 H          1.7444891381        0.2964555528        2.8993021404
 H          0.2103949913       -1.1215922364        1.8946812083
 H          3.8059871818       -3.5091173237        1.8250807122
 H          2.0409969414       -3.7272106824        1.8063131189
 H          3.0158961558       -4.3913680271        0.5000997241
 H          6.5526783439       -0.6593153894        0.4816771515
 H          5.4297957484       -0.4419434365        1.8343185705
 H          6.0904462641        1.9351896181        2.0327486280
 H          7.5152377507        0.8940608936        2.1541059023
 H          8.0438727360        1.3201271649       -0.2311334272
 H          7.9151056107        2.8557924522        0.6327498930
 H          5.5904436378        3.1282503396       -0.1470953608
 H          6.6475146226        2.8886329185       -1.5463580131
 H          6.0602567423        0.4892939792       -1.5977041199
 H          4.6057970658        1.4861026794       -1.7410254584
  86
       -129.60793176
 C          2.2463888357        3.3162220702       -3.1110486953
 O          2.1631683356        2.3778883588       -2.0635081643
 C          1.2616945284        1.3680602988       -2.1015420718
 C          0.1727443517        1.2974154116       -2.9757351505
 C         -0.2634215307        2.3863668457       -3.7534583923
 N         -0.7291527060        3.2468846707       -4.3600302916
 C         -0.5989921969        0.1045734524       -3.0682106548
 C         -1.7817715980        0.0101386613       -3.9817858973
 C         -0.2010442808       -0.9928113978       -2.3650188342
 C          0.8730450578       -0.9524472946       -1.4587677481
 C          1.3817910903       -2.1147708340       -0.8320032541
 Se         0.5060002030       -3.8159352417       -1.0823078554
 Se        -0.6643720206       -3.7855710599        0.9378274941
 C         -1.4414548996       -2.0322153339        0.7218762616
 C         -2.5644956480       -1.8518126969       -0.0664785517
 C         -3.3002970157       -2.9939599865       -0.6864512263
 N         -2.9998104217       -0.6351582766       -0.3745508109
 C         -2.4503588954        0.4570805035        0.1386093954
 N         -2.8551191239        1.6310865300       -0.3999726367
 C         -3.9738039305        1.6372042316       -1.3215926381
 C         -4.8087597849        2.8962905567       -1.1002311767
 C         -3.9472776532        4.1376049077       -1.3069265659
 C         -2.7498010422        4.0762194896       -0.3646053566
 C         -1.9891349638        2.7728214792       -0.5948130041
 C         -1.4983249123        0.3547593029        1.2134417851
 C         -1.2223899904        1.3762184335        2.1623779755
 O         -2.0954231253        2.4111710116        2.1684506026
 C         -2.1579857194        3.3008490381        3.2590280106
 C         -0.1519203510        1.2246576585        3.0474921113
 C          0.3034086756        2.2493362985        3.8982358356
 N          0.7845011247        3.0540281576        4.5661072165
 C          0.5883562846        0.0078572075        3.0802748214
 C          1.7485439376       -0.1569438082        4.0119105036
 C          0.1711174400       -1.0377188587        2.3134308984
 C         -0.8950572130       -0.9185100291        1.4030066243
 C          2.5226514945       -2.0149912229       -0.0556499806
 C          3.2163995346       -3.2117601072        0.5070556676
 N          3.0135001412       -0.8310930875        0.2945543232
 C          2.4951163293        0.3027197420       -0.1549152916
 N          2.9512224651        1.4355575713        0.4311857089
 C          2.1138245815        2.5790497226        0.7194262686
 C          2.8989523130        3.8779536952        0.5612782222
 C          4.1093190709        3.8517147135        1.4885269139
 C          4.9416237446        2.6095979994        1.1877886985
 C          4.0853681035        1.3533341545        1.3299297499
 C          1.5220522413        0.2885799776       -1.2153017043
 H          2.1781963298        2.8363461017       -4.0912005987
 H          1.4730709125        4.0847492018       -3.0304940670
 H          3.2269286929        3.7813673552       -3.0088229746
 H         -1.5174692804       -0.5652106644       -4.8703622982
 H         -2.1241996804        0.9898582854       -4.3055426393
 H         -2.5939832789       -0.5088345490       -3.4750512385
 H         -0.7214704287       -1.9279052672       -2.5099493647
 H         -2.6574588240       -3.5120171975       -1.3997693225
 H         -3.5920461069       -3.7133494716        0.0772725049
 H         -4.1821997738       -2.6259530931       -1.2017375978
 H         -4.5630965304        0.7382974747       -1.1461689622
 H         -3.6070704514        1.6199055315       -2.3550529372
 H         -5.2031701311        2.8899552444       -0.0822579583
 H         -5.6506203687        2.8942608936       -1.7936544753
 H         -4.5298203511        5.0407563074       -1.1191826793
 H         -3.5950697676        4.1708613600       -2.3406773033
 H         -3.0939232341        4.1146565699        0.6679105758
 H         -2.0793245897        4.9190880462       -0.5399934529
 H         -1.6400936775        2.7626848228       -1.6376532691
 H         -1.1177202134        2.7046964556        0.0532899410
 H         -1.3595451601        4.0467242657        3.2202709322
 H         -2.1134073862        2.7732199843        4.2155648639
 H         -3.1223110627        3.8017795644        3.1724776549
 H          2.2314781712        0.7961777459        4.2247811555
 H          2.4757288257       -0.8457032547        3.5817660648
 H          1.4039431723       -0.5727538651        4.9626772004
 H          0.6660272002       -1.9929324274        2.4081588309
 H          3.4583614787       -3.9163379948       -0.2872763075
 H          4.1244731131       -2.9037357412        1.0162579019
 H          2.5633962684       -3.7236387759        1.2157443031
 H          1.7824947891        2.5063229873        1.7657713019
 H          1.2296734465        2.5712349278        0.0851525614
 H          3.2299074377        3.9745178952       -0.4717711769
 H          2.2501683534        4.7222457906        0.7997893623
 H          3.7706603647        3.8243091498        2.5270170964
 H          4.7091648247        4.7528564418        1.3531399967
 H          5.3262995497        2.6664267691        0.1677318668
 H          5.7898862906        2.5431232172        1.8701849561
 H          3.7375621545        1.2612800949        2.3661452275
 H          4.6545626057        0.4599559696        1.0766712575
  86
       -129.60628686
 C          1.1425388766        3.8452456628       -1.4692136250
 O          1.4977803850        2.6377776595       -0.8327066141
 C          1.0521961635        1.4578329809       -1.3299722726
 C         -0.0205058829        1.3403652307       -2.2157929994
 C         -0.8713902976        2.3953116692       -2.5938671739
 N         -1.6572002029        3.1667265996       -2.9266238158
 C         -0.3919900930        0.0694734260       -2.7376631534
 C         -1.4561970669       -0.0431491881       -3.7816266402
 C          0.1867712594       -1.0450151351       -2.2138549480
 C          1.1467027250       -0.9761867588       -1.1885543015
 C          1.5371214785       -2.1247028770       -0.4586040278
 Se         0.6953479172       -3.8246743036       -0.8145615374
 Se        -1.0201980606       -3.6983846046        0.7795877364
 C         -1.6504463606       -1.9138319635        0.4000370233
 C         -2.5085700312       -1.6736964388       -0.6588357917
 C         -2.9822017654       -2.7575134356       -1.5710809654
 N         -3.0183589542       -0.4647741979       -0.8673306008
 C         -2.6806483182        0.5768381452       -0.1160951490
 N         -3.4555077701        1.6718094995       -0.2724899931
 C         -4.3922178508        1.6689736310       -1.3848325987
 C         -5.0649636505        3.0274432900       -1.5020882979
 C         -5.9265128047        3.3114008939       -0.2669444561
 C         -5.3133899022        2.6395429348        0.9660964389
 C         -3.7940970685        2.5583144119        0.8203738378
 C         -1.5620839187        0.4980940087        0.7887648882
 C         -0.8077049072        1.6023565931        1.2697075763
 O         -1.1261272911        2.8091041245        0.7407668100
 C         -0.7101933811        3.9983896508        1.3749334736
 C          0.2323248830        1.3889092320        2.1751401646
 C          1.1423156673        2.3759785919        2.5926265920
 N          1.9545976400        3.1012702202        2.9635810102
 C          0.4888686077        0.0847456538        2.6846726658
 C          1.5312695527       -0.1168518273        3.7369367424
 C         -0.1795754845       -0.9733834347        2.1493899317
 C         -1.1326684672       -0.8146132689        1.1268073072
 C          2.4193476990       -1.9763789940        0.5950747844
 C          2.7690914711       -3.0931950553        1.5226812937
 N          3.0667421801       -0.8319467565        0.7790036763
 C          2.8400181624        0.2445425030        0.0398632747
 N          3.7316985369        1.2544603333        0.2059987649
 C          4.7128852244        1.1395132510        1.2697691875
 C          5.0548038521        2.5235444624        1.8125250825
 C          5.5873084179        3.4127822077        0.6950395508
 C          4.5507689642        3.4632883938       -0.4214132640
 C          4.2361831839        2.0470255579       -0.8949797008
 C          1.7068985376        0.2884907595       -0.8520603213
 H          1.7852610169        4.6117565115       -1.0369503437
 H          1.3206556519        3.7946570752       -2.5480994238
 H          0.0986962420        4.1069675814       -1.2918555124
 H         -1.3356624089       -0.9661407257       -4.3440957179
 H         -1.4382700988        0.8018471345       -4.4667270943
 H         -2.4321554391       -0.0667349001       -3.2944223798
 H         -0.1227991234       -2.0187471768       -2.5632290431
 H         -3.5316883846       -3.5060847306       -1.0003777125
 H         -3.6311057721       -2.3389590177       -2.3343048004
 H         -2.1384763108       -3.2602410904       -2.0434281994
 H         -5.1388790459        0.8751846170       -1.2575540114
 H         -3.8240848894        1.4518041828       -2.2909425373
 H         -5.6748526211        3.0476772235       -2.4051939867
 H         -4.2873459908        3.7839204877       -1.6151505619
 H         -6.9391172310        2.9344598102       -0.4190803359
 H         -5.9976924187        4.3892194828       -0.1123533835
 H         -5.7069695605        1.6277443472        1.0846261246
 H         -5.5588028523        3.1972528017        1.8707979356
 H         -3.3987348424        3.5612377916        0.6351364033
 H         -3.3526507232        2.1712789419        1.7414975872
 H         -1.2737822226        4.8000703544        0.8966814477
 H          0.3573558941        4.1802583165        1.2424194202
 H         -0.9409216942        3.9821422400        2.4445657194
 H          1.4980692345        0.6720850407        4.4860068320
 H          2.5191599699       -0.0991731377        3.2758231772
 H          1.3981498829       -1.0806136748        4.2223068774
 H          0.0448157154       -1.9724131662        2.4923353005
 H          3.4432527080       -2.7332203807        2.2938467968
 H          1.8722142163       -3.5073946757        1.9830432425
 H          3.2530501889       -3.8963539768        0.9671028305
 H          5.6190693462        0.6456405860        0.8907796906
 H          4.2927244555        0.5145630276        2.0554548228
 H          4.1511602550        2.9662295662        2.2354571279
 H          5.7933983782        2.4213816359        2.6086969733
 H          6.5261175544        3.0049130798        0.3101240207
 H          5.7855966359        4.4172126877        1.0718935365
 H          3.6389232261        3.9134078105       -0.0306140262
 H          4.9091095806        4.0589048860       -1.2628068230
 H          5.1658415474        1.5799017658       -1.2605112986
 H          3.5268865127        2.0512621502       -1.7189870812
  86
       -129.60619173
 C          1.0592609068        3.8426642710       -1.4045809246
 O          1.4703739567        2.6258769188       -0.8240704033
 C          1.0387519781        1.4490632620       -1.3379419230
 C         -0.0133482761        1.3235346636       -2.2462944406
 C         -0.8484270146        2.3739669771       -2.6700001963
 N         -1.6217508939        3.1407191091       -3.0436285437
 C         -0.3718825612        0.0465086089       -2.7647602269
 C         -1.4158316030       -0.0738944151       -3.8281615160
 C          0.1981353725       -1.0637368273       -2.2227830711
 C          1.1450903300       -0.9853938718       -1.1860885438
 C          1.5359578869       -2.1252702832       -0.4429056036
 Se         0.7058923997       -3.8309191792       -0.7975724188
 Se        -1.0346692050       -3.6992989887        0.7708308748
 C         -1.6465552595       -1.9076875898        0.3936459555
 C         -2.4898788115       -1.6549679559       -0.6739657914
 C         -2.9620517200       -2.7297063388       -1.5976391820
 N         -2.9883427975       -0.4410435329       -0.8809600091
 C         -2.6566715642        0.5927685703       -0.1168828076
 N         -3.4215511459        1.6947158064       -0.2809171150
 C         -4.3377488243        1.7013171525       -1.4106865392
 C         -5.0159912219        3.0573237833       -1.5248436997
 C         -5.9019666367        3.3221951447       -0.3029619859
 C         -5.3067501652        2.6412582173        0.9341003297
 C         -3.7847284716        2.5679671237        0.8151723425
 C         -1.5531719109        0.5011964117        0.8053682957
 C         -0.8035084668        1.5972225260        1.3119856167
 O         -1.1159354104        2.8146537733        0.8023492191
 C         -0.7165117485        3.9907389992        1.4717650183
 C          0.2281412808        1.3692985725        2.2234924175
 C          1.1390775842        2.3488944183        2.6574206860
 N          1.9511915382        3.0665587203        3.0441368163
 C          0.4762186644        0.0589243829        2.7201330529
 C          1.5101077548       -0.1601094266        3.7772790762
 C         -0.1928046380       -0.9901262957        2.1678179820
 C         -1.1330970551       -0.8167274169        1.1360022041
 C          2.4091059296       -1.9642022314        0.6167810994
 C          2.7590159962       -3.0738632977        1.5530936051
 N          3.0502447808       -0.8148615695        0.7977350794
 C          2.8202959266        0.2527520715        0.0475102065
 N          3.7032528795        1.2730723594        0.1992575085
 C          4.6798491727        1.1851087958        1.2691801707
 C          5.0299171674        2.5838979410        1.7673021886
 C          5.5709820390        3.4335996566        0.6231916189
 C          4.5396789641        3.4565605554       -0.4991515117
 C          4.2128194875        2.0288123105       -0.9260942500
 C          1.6935991509        0.2832356648       -0.8510040323
 H          1.6562193601        4.6184887436       -0.9256314596
 H          1.2517118989        3.8566708261       -2.4820880264
 H          0.0010613436        4.0388499125       -1.2260526271
 H         -1.3092218391       -1.0188883528       -4.3555127410
 H         -1.3576388616        0.7455758438       -4.5416470152
 H         -2.4031181373       -0.0512407004       -3.3645458238
 H         -0.1040038846       -2.0405302567       -2.5699500190
 H         -3.5843009896       -2.2988048668       -2.3759930449
 H         -2.1178394272       -3.2499817831       -2.0492614457
 H         -3.5403362450       -3.4663353252       -1.0399349551
 H         -5.0825867221        0.9025483343       -1.3069764213
 H         -3.7517413676        1.4980277624       -2.3087662089
 H         -5.6091129217        3.0841080484       -2.4388613792
 H         -4.2417732376        3.8204188981       -1.6152989193
 H         -6.9086437878        2.9396713438       -0.4783135827
 H         -5.9838063843        4.3978349952       -0.1390720134
 H         -5.6974806733        1.6265437974        1.0365339608
 H         -5.5701372126        3.1893007098        1.8397125688
 H         -3.3905426198        3.5745641961        0.6477392395
 H         -3.3588343797        2.1733430939        1.7402605439
 H         -1.2839789726        4.7999406466        1.0115636324
 H          0.3501723816        4.1865767916        1.3522483869
 H         -0.9548345215        3.9431726330        2.5386711733
 H          1.3593690985       -1.1222271771        4.2608178266
 H          1.4863743464        0.6282766758        4.5272682575
 H          2.5002241716       -0.1580380565        3.3201381473
 H          0.0228149764       -1.9936419696        2.5031078796
 H          3.4137515806       -2.7024607519        2.3354751388
 H          1.8607754383       -3.5019130203        1.9975877098
 H          3.2661548665       -3.8698027100        1.0077681131
 H          5.5839317769        0.6716029682        0.9113383030
 H          4.2503916977        0.5907796817        2.0736703032
 H          4.1285243423        3.0445642683        2.1754945079
 H          5.7665705457        2.5028387063        2.5676384961
 H          6.5077219799        3.0065432228        0.2544110794
 H          5.7760971609        4.4480151729        0.9684075507
 H          3.6308110376        3.9312236145       -0.1314145698
 H          4.9087485143        4.0182661611       -1.3590379017
 H          5.1378832809        1.5430154943       -1.2792573118
 H          3.5012557436        2.0135231709       -1.7484389579
