  86
  -129.046430856500       0.428931798863585      !
 C          2.8940008468        3.9155378818       -0.2850652310
 O          3.0991160210        2.5216943832       -0.2181286564
 C          2.2359865848        1.6526398165       -0.7852989101
 C          1.0660816551        1.9937203473       -1.4642208548
 C          0.6385764798        3.3089246753       -1.7152873566
 N          0.1811067093        4.3333685808       -1.9747043228
 C          0.1853453889        0.9799995140       -1.9459953462
 C         -1.0345151220        1.3634808062       -2.7223620160
 C          0.4494261605       -0.3230389820       -1.6554168874
 C          1.5932086234       -0.7070404947       -0.9299320386
 C          1.7805607943       -2.0281459663       -0.4575005174
 Se         0.5478285072       -3.4370761740       -0.9338984054
 Se        -0.8601824164       -3.3609422721        0.9047680850
 C         -1.9460368206       -1.8410002067        0.4139629146
 C         -3.0059843574       -1.9930168265       -0.4660757569
 C         -3.2725361813       -3.2701213127       -1.1921744445
 N         -3.8778787564       -1.0113940069       -0.6621044245
 C         -3.7270603245        0.1733247440       -0.0859556353
 N         -4.8141861092        0.9744379989       -0.1092009883
 C         -5.9510376703        0.5202177012       -0.8930936568
 C         -7.0071060217        1.6135180383       -0.9540983354
 C         -7.5813811912        1.8818955101        0.4415919299
 C         -6.5124971209        1.6257406185        1.5091977253
 C         -5.1206035156        1.9144161181        0.9486813787
 C         -2.4692780554        0.5374100189        0.5110096523
 C         -1.9984616113        1.8698679396        0.6596615341
 O         -2.7520708711        2.8062021520        0.0438980211
 C         -2.4422944610        4.1806853805        0.1209996644
 C         -0.8015667590        2.1012868476        1.3385658575
 C         -0.2392451318        3.3699141790        1.5560835227
 N          0.3182089478        4.3504735424        1.7882983280
 C         -0.0358937162        1.0098381932        1.8460568762
 C          1.2201507540        1.2792780994        2.6130117273
 C         -0.4360841416       -0.2642183136        1.5818094602
 C         -1.6150412241       -0.5407015703        0.8633243432
 C          2.8145351732       -2.2770909377        0.4289204306
 C          2.9483196854       -3.5640969685        1.1739433239
 N          3.7833316065       -1.3871703906        0.6116674378
 C          3.7642984718       -0.2030497614        0.0222436734
 N          4.9252893510        0.5029696786        0.0628531247
 C          6.0011085105       -0.0037567473        0.8926202892
 C          6.8630317049        1.1585938295        1.3778226355
 C          7.4263508895        1.9312984616        0.1900374279
 C          6.2715884758        2.4005970656       -0.6881587789
 C          5.4215027585        1.2044232967       -1.1041115218
 C          2.5583411038        0.2795402759       -0.5964059486
 H          3.7298472014        4.3567122803        0.2572502396
 H          2.9050314154        4.2746037942       -1.3172646481
 H          1.9627501383        4.2148095516        0.2013949874
 H         -1.5923977690        0.4765594367       -3.0123961161
 H         -0.7587444757        1.9187690962       -3.6187497237
 H         -1.6865819097        2.0042408935       -2.1313488248
 H         -0.2493147393       -1.0887212503       -1.9605134993
 H         -4.1489269760       -3.1555978496       -1.8224929296
 H         -2.4126307306       -3.5416713098       -1.8068970402
 H         -3.4376667330       -4.0788384564       -0.4806296103
 H         -6.3741495088       -0.3962094722       -0.4631629467
 H         -5.5845227554        0.2707930358       -1.8914213729
 H         -7.7993897266        1.3127026588       -1.6395819664
 H         -6.5493799014        2.5190274768       -1.3559895115
 H         -8.4396678017        1.2344084851        0.6260828953
 H         -7.9307211262        2.9139169056        0.4986185700
 H         -6.5462079391        0.5853954784        1.8383776006
 H         -6.6855053694        2.2544258875        2.3832504264
 H         -5.0878699138        2.9409202391        0.5708612497
 H         -4.3747134959        1.8131715074        1.7397048237
 H         -3.2513062480        4.6852100238       -0.4069773612
 H         -1.4967529491        4.4122194424       -0.3752270922
 H         -2.4120567776        4.5295167290        1.1561116201
 H          1.6791510224        0.3454439241        2.9279660686
 H          1.0089952732        1.8862410435        3.4932658974
 H          1.9367541662        1.8281401499        2.0043652160
 H          0.1783226824       -1.0928598529        1.9036147043
 H          3.8268816868       -3.5284497529        1.8106201391
 H          2.0611141414       -3.7430126390        1.7838205824
 H          3.0399834548       -4.3943150418        0.4739250172
 H          6.6174668174       -0.7154607630        0.3254654114
 H          5.5572322066       -0.5357439550        1.7333416376
 H          6.2495683964        1.8254657148        1.9866148295
 H          7.6698314401        0.7711595079        2.0013311157
 H          8.0885858056        1.2826115802       -0.3888615943
 H          8.0103416058        2.7859464414        0.5352083948
 H          5.6513537740        3.0974316806       -0.1264435618
 H          6.6440583913        2.9073954534       -1.5797977092
 H          6.0480086250        0.5099743738       -1.6879393553
 H          4.5937038951        1.5154055990       -1.7372496336
  86
  -129.046172952600       0.326485439724006      !
 C          2.8800938828        3.9185814034       -0.3471825222
 O          3.0824226270        2.5257190245       -0.2570453345
 C          2.2196399403        1.6491572100       -0.8119712892
 C          1.0484567645        1.9821295313       -1.4928422681
 C          0.6149171887        3.2946093155       -1.7482034049
 N          0.1509130225        4.3158141458       -2.0077254396
 C          0.1708125260        0.9634692716       -1.9691384514
 C         -1.0544728450        1.3397026700       -2.7404302169
 C          0.4423958594       -0.3376810057       -1.6770765193
 C          1.5848375850       -0.7138134627       -0.9454421404
 C          1.7747995570       -2.0331918273       -0.4682497922
 Se         0.5525599893       -3.4502798990       -0.9492282769
 Se        -0.8604174248       -3.3675583705        0.8844075049
 C         -1.9388019655       -1.8397245747        0.4030604299
 C         -2.9989447346       -1.9821358738       -0.4784423373
 C         -3.2687465326       -3.2526925398       -1.2148873015
 N         -3.8679227208       -0.9965377489       -0.6666856151
 C         -3.7126277431        0.1832800367       -0.0819484883
 N         -4.7986546419        0.9858142567       -0.0913404754
 C         -5.9430123225        0.5373322328       -0.8674700709
 C         -7.0001877240        1.6303813632       -0.9097624441
 C         -7.5600180727        1.8884231897        0.4936809096
 C         -6.4793587407        1.6285181297        1.5484713237
 C         -5.0936404013        1.9203289561        0.9744415391
 C         -2.4510538640        0.5402619824        0.5112214032
 C         -1.9748950133        1.8703059054        0.6624987244
 O         -2.7291076079        2.8113161958        0.0545585981
 C         -2.4190693615        4.1851237778        0.1417436723
 C         -0.7737029837        2.0946375350        1.3361221253
 C         -0.2042649059        3.3603507152        1.5516205296
 N          0.3572328242        4.3388300203        1.7822234674
 C         -0.0107001923        0.9984408031        1.8374156879
 C          1.2501135733        1.2608232685        2.5990394746
 C         -0.4179740500       -0.2732782933        1.5722896652
 C         -1.6004871404       -0.5427665288        0.8568638242
 C          2.8010550593       -2.2755242597        0.4283488339
 C          2.9364205601       -3.5618069824        1.1740727932
 N          3.7605137185       -1.3777399368        0.6241569949
 C          3.7406492318       -0.1944410361        0.0340500699
 N          4.8927801346        0.5263935460        0.1032598229
 C          5.9447128865        0.0374830954        0.9736341237
 C          6.7943780174        1.2103823721        1.4546570082
 C          7.3945486046        1.9508940967        0.2645076213
 C          6.2670136231        2.4010763979       -0.6578896273
 C          5.4225951423        1.1986016512       -1.0667360444
 C          2.5431533583        0.2780715700       -0.6078656003
 H          3.7243524790        4.3675835490        0.1752264567
 H          2.8777166545        4.2584859925       -1.3858266638
 H          1.9566504406        4.2289627162        0.1470248368
 H         -0.7864209217        1.8947536811       -3.6392386719
 H         -1.7059869910        1.9784731943       -2.1463905558
 H         -1.6099387312        0.4497259699       -3.0256624488
 H         -0.2516147845       -1.1074423954       -1.9825944005
 H         -4.1467599747       -3.1310133809       -1.8426598809
 H         -2.4097579965       -3.5201430168       -1.8339565199
 H         -3.4336047956       -4.0679067292       -0.5094348748
 H         -6.3613656935       -0.3825633668       -0.4401980965
 H         -5.5863051840        0.2955687321       -1.8712419397
 H         -7.7993996889        1.3339431365       -1.5890986427
 H         -6.5472030480        2.5390291620       -1.3098488584
 H         -8.4145045738        1.2373772810        0.6830852882
 H         -7.9115738444        2.9190520620        0.5607925925
 H         -6.5086154130        0.5867120342        1.8734489662
 H         -6.6431191526        2.2531870390        2.4271783526
 H         -5.0644639006        2.9487361599        0.6016095372
 H         -4.3395767624        1.8147355797        1.7570894655
 H         -3.2326543127        4.6943403349       -0.3745130442
 H         -1.4781886895        4.4211881702       -0.3610115921
 H         -2.3797667065        4.5241963802        1.1798041260
 H          1.7099101458        0.3241722947        2.9044747134
 H          1.0445400834        1.8614182718        3.4850385537
 H          1.9637551503        1.8135746503        1.9901983133
 H          0.1938967877       -1.1053241512        1.8900670810
 H          3.8190148724       -3.5271792876        1.8052406421
 H          2.0528332389       -3.7365674922        1.7905278641
 H          3.0202706970       -4.3936522328        0.4750772153
 H          6.5753872299       -0.6887500251        0.4417142432
 H          5.4768607074       -0.4733610337        1.8145526486
 H          6.1643239654        1.8937624190        2.0271297829
 H          7.5812129389        0.8381066078        2.1119861096
 H          8.0708282702        1.2857219603       -0.2782906093
 H          7.9713415523        2.8125222876        0.6044816896
 H          5.6350991434        3.1151687730       -0.1321110166
 H          6.6666772004        2.8826660600       -1.5517428133
 H          6.0602200284        0.4883878587       -1.6188594907
 H          4.6118636348        1.4984524166       -1.7270172656
  86
  -129.045835982600       0.228561526571504      !
 C          2.8473037064        3.9207501757       -0.4028038565
 O          3.0515201626        2.5297204761       -0.2909748991
 C          2.1930656313        1.6437154853       -0.8373567352
 C          1.0190246652        1.9657607641       -1.5187345566
 C          0.5758343901        3.2743634485       -1.7771870741
 N          0.1086008380        4.2920854020       -2.0437922664
 C          0.1459783697        0.9397949233       -1.9873786479
 C         -1.0857897101        1.3056224451       -2.7533259607
 C          0.4280286755       -0.3583586881       -1.6923406587
 C          1.5723521387       -0.7235903207       -0.9582092138
 C          1.7678462662       -2.0396376463       -0.4742091019
 Se         0.5492365634       -3.4614365362       -0.9503758238
 Se        -0.8638735736       -3.3803890896        0.8825405723
 C         -1.9277476612       -1.8431759185        0.3989144517
 C         -2.9859228272       -1.9739278672       -0.4868924523
 C         -3.2614116721       -3.2386575162       -1.2310579225
 N         -3.8475472248       -0.9814424478       -0.6737414319
 C         -3.6867450863        0.1937419352       -0.0814424748
 N         -4.7664988110        1.0048122219       -0.0905735038
 C         -5.9090671203        0.5733184647       -0.8786956488
 C         -6.9582197720        1.6743458174       -0.9139001545
 C         -7.5251535500        1.9181606608        0.4892236747
 C         -6.4525915591        1.6384865882        1.5472659789
 C         -5.0618988262        1.9286672570        0.9845563330
 C         -2.4249391620        0.5393665006        0.5179407415
 C         -1.9420428001        1.8659644812        0.6773154760
 O         -2.6925153086        2.8146307150        0.0769543864
 C         -2.3809816123        4.1869279411        0.1790521282
 C         -0.7388441170        2.0796382099        1.3508906195
 C         -0.1637318433        3.3415600835        1.5733459446
 N          0.4026590732        4.3176928916        1.8026601049
 C          0.0190369161        0.9766296509        1.8445307399
 C          1.2855303053        1.2284152457        2.6002740335
 C         -0.3973279083       -0.2914783691        1.5758061346
 C         -1.5815534497       -0.5504434217        0.8593786061
 C          2.7900261164       -2.2716790362        0.4296068391
 C          2.9296203979       -3.5534918935        1.1822745568
 N          3.7413340539       -1.3660716139        0.6287058515
 C          3.7181472540       -0.1853694745        0.0334229899
 N          4.8637064870        0.5446724882        0.1148136603
 C          5.9047228493        0.0714080974        1.0066152470
 C          6.7322695151        1.2569320005        1.4952636005
 C          7.3485146354        1.9959339299        0.3124774926
 C          6.2336414215        2.4264602938       -0.6342131662
 C          5.4078768927        1.2134308164       -1.0503355782
 C          2.5232841339        0.2758291778       -0.6217001818
 H          3.6926803623        4.3796364251        0.1092672251
 H          2.8405407165        4.2438894923       -1.4468983853
 H          1.9258929250        4.2373109619        0.0908204294
 H         -1.7327868755        1.9507997620       -2.1605046003
 H         -1.6424008962        0.4115589613       -3.0239517131
 H         -0.8254124874        1.8508542915       -3.6606359913
 H         -0.2612866962       -1.1340539993       -1.9933726249
 H         -3.4231132925       -4.0587077078       -0.5316052627
 H         -4.1418307438       -3.1116932907       -1.8534280378
 H         -2.4066976380       -3.5026702686       -1.8564951938
 H         -6.3363353781       -0.3486221800       -0.4650803181
 H         -5.5478186307        0.3412826546       -1.8831145987
 H         -7.7551325087        1.3927124530       -1.6021463483
 H         -6.4960852103        2.5847804260       -1.2991997823
 H         -8.3846143518        1.2698778317        0.6650868198
 H         -7.8710323885        2.9499447260        0.5672238104
 H         -6.4901593201        0.5929564494        1.8591865021
 H         -6.6176791559        2.2533110361        2.4326475770
 H         -5.0248035737        2.9612133587        0.6241669300
 H         -4.3126377087        1.8094571048        1.7699024928
 H         -3.1979667654        4.7031554243       -0.3245705003
 H         -1.4443896762        4.4283588209       -0.3288623633
 H         -2.3331185555        4.5130338373        1.2208270811
 H          1.0901466202        1.8309755503        3.4871821119
 H          2.0004074620        1.7747701754        1.9868988324
 H          1.7390988051        0.2879826123        2.9033915530
 H          0.2090448847       -1.1286448620        1.8906382758
 H          3.8086832448       -3.5099685420        1.8178050500
 H          2.0440894020       -3.7308865476        1.7951933476
 H          3.0222875116       -4.3883286630        0.4880494332
 H          6.5529342722       -0.6504263993        0.4902051237
 H          5.4274118370       -0.4401903418        1.8417800367
 H          6.0838038946        1.9372309403        2.0506164913
 H          7.5101039861        0.8979780836        2.1703200337
 H          8.0420628792        1.3342356444       -0.2123367085
 H          7.9093038119        2.8662976707        0.6573208193
 H          5.5855158722        3.1379828177       -0.1253936885
 H          6.6453423131        2.9055756534       -1.5237879000
 H          6.0621309198        0.5054941611       -1.5855040839
 H          4.6062729282        1.5004645273       -1.7273949591
  86
  -129.043324261400       1.602123484090573E-002 !
 C          2.2534299278        3.3180220209       -3.1040294833
 O          2.1676119905        2.3799200094       -2.0564910032
 C          1.2675371929        1.3689585483       -2.0974372699
 C          0.1818246468        1.2966791160       -2.9755151008
 C         -0.2528970861        2.3848383922       -3.7551533171
 N         -0.7175149528        3.2445821011       -4.3636735853
 C         -0.5880905731        0.1028480095       -3.0703771179
 C         -1.7674605387        0.0066493252       -3.9881663434
 C         -0.1913081721       -0.9938160470       -2.3654044493
 C          0.8794660814       -0.9518256343       -1.4553124195
 C          1.3874012379       -2.1133148184       -0.8263473819
 Se         0.5146318150       -3.8156478728       -1.0792468086
 Se        -0.6630301946       -3.7860954194        0.9366596375
 C         -1.4415117362       -2.0337773576        0.7173494979
 C         -2.5619353112       -1.8550244956       -0.0750944261
 C         -3.2940827954       -2.9982846910       -0.6973374558
 N         -2.9976527037       -0.6390113052       -0.3851230089
 C         -2.4514077579        0.4540743585        0.1296547302
 N         -2.8556893236        1.6274036135       -0.4107585127
 C         -3.9710612892        1.6318345503       -1.3363946696
 C         -4.8083724566        2.8899512306       -1.1184428924
 C         -3.9476973431        4.1322708632       -1.3224430016
 C         -2.7535398150        4.0726769405       -0.3758047247
 C         -1.9904309878        2.7701533161       -0.6028552545
 C         -1.5031164293        0.3532814927        1.2079345423
 C         -1.2318642957        1.3753862684        2.1575254214
 O         -2.1061999805        2.4092532425        2.1601255039
 C         -2.1737881028        3.2992009161        3.2501829042
 C         -0.1643950754        1.2254407061        3.0465297762
 C          0.2865987716        2.2509569295        3.8985724674
 N          0.7642866786        3.0564602253        4.5679078230
 C          0.5772715627        0.0095731712        3.0823665788
 C          1.7343074117       -0.1534860906        4.0182188805
 C          0.1640920687       -1.0367662574        2.3143667925
 C         -0.8989509981       -0.9191753500        1.4000783745
 C          2.5253390473       -2.0118673155       -0.0459316054
 C          3.2185479402       -3.2075919949        0.5196509914
 N          3.0134532258       -0.8272473536        0.3056510135
 C          2.4952786061        0.3057757635       -0.1460457021
 N          2.9478661950        1.4393675456        0.4413237586
 C          2.1080163982        2.5819084644        0.7261828525
 C          2.8920915647        3.8817381333        0.5704367306
 C          4.0991496109        3.8573018496        1.5020375304
 C          4.9340737987        2.6161261188        1.2046944936
 C          4.0788757411        1.3588428960        1.3441643082
 C          1.5260502325        0.2900861967       -1.2099174961
 H          2.1893574013        2.8377485748       -4.0842646822
 H          1.4788723600        4.0856116713       -3.0265032727
 H          3.2330168467        3.7844200709       -2.9984313153
 H         -1.4992510462       -0.5686542909       -4.8756008477
 H         -2.1099408952        0.9858385251       -4.3134687836
 H         -2.5808422005       -0.5131726230       -3.4841857521
 H         -0.7100468104       -1.9296032140       -2.5119014861
 H         -2.6480413023       -3.5157691002       -1.4081730179
 H         -3.5876800338       -3.7177928498        0.0655657964
 H         -4.1745848481       -2.6315403772       -1.2159088940
 H         -4.5598622554        0.7322510449       -1.1627987856
 H         -3.6005946306        1.6146623321       -2.3685247241
 H         -5.2064307300        2.8834500603       -0.1018916264
 H         -5.6477322224        2.8866522504       -1.8148863815
 H         -4.5320337250        5.0347563626       -1.1370862405
 H         -3.5918179981        4.1656355825       -2.3549320624
 H         -3.1014182428        4.1110153648        0.6554553818
 H         -2.0834860236        4.9163233550       -0.5490551369
 H         -1.6376315884        2.7601181184       -1.6444311126
 H         -1.1212671426        2.7033199821        0.0483970999
 H         -1.3761415721        4.0460569927        3.2140538868
 H         -2.1319917991        2.7719332375        4.2070445776
 H         -3.1384183482        3.7989030680        3.1600054511
 H          2.2152878072        0.8003037744        4.2325150258
 H          2.4638895283       -0.8414771795        3.5909135195
 H          1.3868091147       -0.5694211292        4.9678756500
 H          0.6598456688       -1.9913327599        2.4111819465
 H          3.4642392056       -3.9121217787       -0.2735781398
 H          4.1244017972       -2.8982749748        1.0320134807
 H          2.5636388843       -3.7200567462        1.2261540886
 H          1.7730188149        2.5091035040        1.7713539366
 H          1.2261609940        2.5727906054        0.0887384652
 H          3.2266370541        3.9783843181       -0.4614478708
 H          2.2414051353        4.7252981362        0.8063414249
 H          3.7567950375        3.8298063925        2.5393128021
 H          4.6983569808        4.7591462453        1.3685153452
 H          5.3223422978        2.6731079226        0.1860082953
 H          5.7799603025        2.5509251576        1.8901562018
 H          3.7274625615        1.2666868842        2.3791529510
 H          4.6500873336        0.4660930677        1.0932422343
