  86
       -129.60920917
 C          2.8859550863        3.9124016971       -0.3676042612
 O          3.0861406722        2.5195751864       -0.2722770242
 C          2.2209757354        1.6422464760       -0.8222600788
 C          1.0491909900        1.9744511104       -1.5024706927
 C          0.6173828291        3.2866225389       -1.7623108592
 N          0.1546231197        4.3075555989       -2.0251035470
 C          0.1690635945        0.9553619513       -1.9732352217
 C         -1.0569050978        1.3305578888       -2.7439463037
 C          0.4389968147       -0.3450664286       -1.6764662735
 C          1.5820550709       -0.7201817566       -0.9452727972
 C          1.7706507718       -2.0379681948       -0.4631650065
 Se         0.5452645053       -3.4549298926       -0.9364477036
 Se        -0.8644660561       -3.3625932351        0.8992270744
 C         -1.9411453685       -1.8348997824        0.4136359867
 C         -3.0030133198       -1.9790544379       -0.4655037558
 C         -3.2761558242       -3.2520759887       -1.1964399639
 N         -3.8706836324       -0.9927747613       -0.6561934621
 C         -3.7124541846        0.1890960641       -0.0764100207
 N         -4.7971714616        0.9933825472       -0.0871566784
 C         -5.9435799391        0.5437175811       -0.8595664121
 C         -6.9990227988        1.6383379642       -0.9044157462
 C         -7.5560486085        1.9028741716        0.4989344214
 C         -6.4740335430        1.6453700433        1.5529235445
 C         -5.0888107320        1.9326069313        0.9754014218
 C         -2.4492905941        0.5463416574        0.5132073228
 C         -1.9706849888        1.8761858616        0.6583967959
 O         -2.7243747672        2.8160223882        0.0479975634
 C         -2.4119257704        4.1896503222        0.1292019164
 C         -0.7679853681        2.1012016054        1.3290956819
 C         -0.1960980023        3.3668162224        1.5386037329
 N          0.3674012941        4.3452727103        1.7643704504
 C         -0.0059418331        1.0057422329        1.8334508985
 C          1.2565911536        1.2690590950        2.5918975939
 C         -0.4157594092       -0.2663435437        1.5740658670
 C         -1.5999253794       -0.5367123021        0.8617127653
 C          2.7980231054       -2.2784377254        0.4326558200
 C          2.9325319787       -3.5619726522        1.1832534083
 N          3.7592902915       -1.3814720529        0.6232769740
 C          3.7403760521       -0.2004934406        0.0285090881
 N          4.8938088612        0.5187028413        0.0929106784
 C          5.9464076055        0.0315109984        0.9634434799
 C          6.7988181509        1.2049028041        1.4383692589
 C          7.3981909761        1.9396907607        0.2442768058
 C          6.2698382546        2.3880734190       -0.6779970421
 C          5.4227478901        1.1853842139       -1.0806384087
 C          2.5425746307        0.2714483450       -0.6132564170
 H          3.7318363153        4.3620762777        0.1515916202
 H          2.8823782999        4.2481845549       -1.4075847960
 H          1.9638630002        4.2262696650        0.1269241479
 H         -0.7894620340        1.8815927490       -3.6454033951
 H         -1.7063583546        1.9727583406       -2.1513497874
 H         -1.6143192774        0.4403763760       -3.0247035125
 H         -0.2567980006       -1.1148850202       -1.9777526120
 H         -4.1550298853       -3.1314368926       -1.8232082040
 H         -2.4186592621       -3.5234024634       -1.8158908095
 H         -3.4411618286       -4.0642098249       -0.4874779068
 H         -6.3627241486       -0.3737813960       -0.4279386142
 H         -5.5889728143        0.2973819920       -1.8629706687
 H         -7.7998719812        1.3405284910       -1.5812193829
 H         -6.5452198580        2.5446398461       -1.3088720079
 H         -8.4112846919        1.2539999047        0.6923650340
 H         -7.9057913169        2.9343415813        0.5625452025
 H         -6.5044563469        0.6049118701        1.8820855174
 H         -6.6352753759        2.2737918476        2.4294176224
 H         -5.0585712555        2.9594765288        0.5984388899
 H         -4.3335972265        1.8288732804        1.7571888611
 H         -3.2255439628        4.6981592506       -0.3876995046
 H         -1.4715104943        4.4221602273       -0.3760741909
 H         -2.3703057590        4.5327749639        1.1658396009
 H          1.7153604050        0.3328683077        2.9002743172
 H          1.0535090423        1.8735053439        3.4758498405
 H          1.9701101064        1.8182079861        1.9796622229
 H          0.1952769725       -1.0981328196        1.8941125174
 H          3.8162502285       -3.5263004431        1.8127883154
 H          2.0497035492       -3.7328227500        1.8018880765
 H          3.0138268241       -4.3967233615        0.4874268599
 H          6.5749822325       -0.6978701970        0.4333487317
 H          5.4791396142       -0.4752165684        1.8071727900
 H          6.1708619014        1.8915912558        2.0091856862
 H          7.5861510619        0.8339375993        2.0958429770
 H          8.0724529904        1.2712513477       -0.2970156877
 H          7.9769781869        2.8017060161        0.5798519466
 H          5.6399930832        3.1052916577       -0.1539931914
 H          6.6687799428        2.8654495104       -1.5744292440
 H          6.0582652094        0.4719305071       -1.6310118924
 H          4.6113941087        1.4839529118       -1.7407362226
