58
 energy: -89.055274917665 gnorm: 0.000052660915 xtb: 6.7.1 (edcfbbe)
C           -6.66777594716136       -2.45485166917847       -0.29859500493566
C           -6.20302138025645       -1.75770600779992        0.80469755693651
C           -4.90738890879460       -1.27575692672398        0.82898766418822
C           -4.05535050810441       -1.48992323131890       -0.25139032209827
C           -2.66475655494077       -1.00002106533468       -0.22784466819548
C           -1.64068023519525       -1.88054386104450       -0.49245248079675
C           -0.30165596409630       -1.46984213332033       -0.42971422323568
N            0.69678551774674       -2.35013719916983       -0.69875567408204
C            1.91808057979653       -1.92294868260796       -0.60026574770672
C            2.23333953540399       -0.57576470942204       -0.24160515019864
N            3.53747634314777       -0.15578938336653       -0.17226225564857
C            3.84966084896134        1.21874284719758       -0.26917703623956
C            4.78601926441416        1.78063141362860        0.59339458454033
C            5.11374947243910        3.11943207719506        0.48233435864555
C            4.50939864812552        3.90944073971392       -0.48138838100264
C            3.57562251320307        3.35119036989123       -1.33928197491555
C            3.24801520900211        2.01180112212572       -1.24081285270255
C            4.58003292182906       -1.06132889742123        0.10568867857734
C            5.79092646885104       -0.95099737932445       -0.57434463687360
C            6.82335539616121       -1.82715981206428       -0.29667519557593
C            6.66107867288251       -2.82257599912606        0.65366972938906
C            5.45995508550466       -2.93184982848126        1.33527685024904
C            4.42499136044313       -2.05364408007218        1.07124389000175
N            1.27860944179428        0.30380138756470       -0.01274621106792
C            0.00227534591969       -0.12430048893869       -0.09217337550416
C           -1.05412223643999        0.76723777813948        0.16007356402905
C           -2.36392907892933        0.35165637263571        0.09597993707264
C           -3.43855177123560        1.33293942877171        0.33389826154885
C           -3.40699445752453        2.14390771578210        1.46533766417516
C           -4.40752730773807        3.07149173501032        1.69242238575475
C           -5.44594683378693        3.20999643694963        0.78642742608792
C           -5.47597760823380        2.41917413460557       -0.35065180229034
C           -4.48095512747095        1.48618951796003       -0.57655031008830
C           -4.52561369771908       -2.20634467988674       -1.34891902628789
C           -5.82491627693560       -2.67977763239457       -1.37435030706052
H           -7.68233065697281       -2.82503365795126       -0.31841329555824
H           -6.85309177356161       -1.58728465660902        1.65060561400972
H           -4.54593645156617       -0.74049366419358        1.69478195387316
H           -1.84630117501040       -2.91443213125179       -0.72693161278819
H            2.70135423981480       -2.63031745160815       -0.84085727743250
H            5.25286241535337        1.16508016069355        1.34859168870830
H            5.84051905884115        3.54715259745084        1.15701607722990
H            4.76477792806539        4.95508037859985       -0.56421116057470
H            3.10404980304550        3.95940748912095       -2.09705938623352
H            2.52576578546843        1.57592500923977       -1.91449848908704
H            5.91242314975645       -0.17590648923722       -1.31658098047367
H            7.75728896970562       -1.73507358582639       -0.83051086151289
H            7.46799806743896       -3.50723142733881        0.86568786960052
H            5.32832256470887       -3.69777332317610        2.08509966475598
H            3.49424694932875       -2.12658207618789        1.61638170912694
H           -0.80843471526409        1.79245462484850        0.39362315479745
H           -2.60196660457305        2.02844448082556        2.17735702227480
H           -4.37654030162278        3.68773110886161        2.57947513682801
H           -6.22781634689215        3.93369678146880        0.96448728256652
H           -6.27854657216011        2.52912003853734       -1.06540925973127
H           -4.50213567341614        0.87897031941934       -1.46952115389218
H           -3.87021731901140       -2.37389345193439       -2.19201753659430
H           -6.18049807254896       -3.22541148393417       -2.23657407458328
