  47
  -72.5054233444000       0.371749701898840      !
 C         -5.0597773612       -2.6594607183        0.1495782266
 C         -3.9649330361       -3.4339958736       -0.2425183848
 C         -2.7120278316       -2.8889987462       -0.2980822024
 C         -2.4896803504       -1.5164749710        0.0253612433
 C         -1.1749565302       -1.0423779235       -0.0695440281
 N         -0.1200771168       -1.8851880068       -0.1476989728
 C          0.9689542483       -1.1546774407       -0.0579336938
 C          2.3199025307       -1.6095461567       -0.0208750361
 C          2.6084883300       -2.9744997196       -0.0305005887
 C          3.9166295054       -3.4134808297        0.0468786042
 C          4.9354645633       -2.4794110880        0.1434922017
 C          4.6580745210       -1.1220274178        0.1469225415
 C          3.3480491540       -0.6405749000        0.0552620014
 C          3.0248304235        0.7775733492        0.0127724182
 C          4.0196017504        1.7494979860       -0.0097614196
 C          3.7374747634        3.1010615179       -0.0986157603
 C          2.4109707669        3.5304674757       -0.1988211332
 C          1.3950828987        2.6179334238       -0.1696964172
 C          1.6513177092        1.2252358496       -0.0364923852
 C          0.6523034014        0.2550518221        0.0133377258
 N         -0.7223451703        0.3063193738        0.0013061594
 C         -1.5498651373        1.4323309126       -0.0178275500
 C         -1.5033299597        2.3637541857        1.0217854265
 C         -2.3418248697        3.4603990293        1.0001983053
 C         -3.2332524340        3.6411112284       -0.0476290121
 C         -3.2837509936        2.7148276056       -1.0784331544
 C         -2.4504681728        1.6139270884       -1.0695930055
 C         -3.6122846199       -0.7586272767        0.4628049440
 C         -4.8585691478       -1.3288123027        0.5139448242
 H         -6.0478863461       -3.0907768745        0.1880670117
 H         -4.1133602509       -4.4713287599       -0.5054283154
 H         -1.8581926561       -3.4711861418       -0.6034517423
 H          1.7826303934       -3.6655610210       -0.0926595292
 H          4.1413418280       -4.4690163267        0.0379982452
 H          5.9622054308       -2.8075883068        0.2146773188
 H          5.4880256480       -0.4384438215        0.2244870252
 H          5.0565411098        1.4568598514        0.0313688268
 H          4.5420092742        3.8201573316       -0.1097282388
 H          2.1915175270        4.5825135226       -0.3045179506
 H          0.3770484534        2.9534372582       -0.2727502340
 H         -0.8129764914        2.2113455355        1.8387981769
 H         -2.3061978714        4.1748205563        1.8091461263
 H         -3.8874619065        4.4992058163       -0.0581676612
 H         -3.9749521425        2.8535518297       -1.8958829344
 H         -2.4857205891        0.8861746414       -1.8662960857
 H         -3.4814546572        0.2544280348        0.8040753091
 H         -5.6971224575       -0.7380540094        0.8546636958
  47
  -72.5050543722000       0.251583842748847      !
 C         -5.0452883639       -2.6790005084       -0.1181798421
 C         -3.9403222176       -3.4538980691        0.2431417469
 C         -2.6957257767       -2.8939485384        0.3260450882
 C         -2.4893924387       -1.5072127249        0.0523834890
 C         -1.1759945504       -1.0299361368        0.1316417853
 N         -0.1191633233       -1.8694957029        0.2277947892
 C          0.9670018011       -1.1446303048        0.0840376827
 C          2.3181870281       -1.6007584813        0.0936958491
 C          2.6077443887       -2.9536347851        0.2729941028
 C          3.9183036555       -3.3914216105        0.2957229631
 C          4.9395402624       -2.4678186466        0.1395799314
 C          4.6607173898       -1.1230008255       -0.0406858213
 C          3.3465797214       -0.6445805763       -0.0757576675
 C          3.0199515952        0.7626391480       -0.2434759146
 C          4.0062809957        1.7148157628       -0.4789547454
 C          3.7263119963        3.0654857837       -0.5835948559
 C          2.4147285710        3.5192576224       -0.4126148149
 C          1.4052856805        2.6233224790       -0.2047001515
 C          1.6511933773        1.2225311100       -0.1640657485
 C          0.6497601314        0.2599646732       -0.0607958206
 N         -0.7243955289        0.3147857034       -0.0063801445
 C         -1.5523671891        1.4394192435        0.0982498728
 C         -2.3102295189        1.6276786190        1.2549326277
 C         -3.1434119232        2.7238426994        1.3612705331
 C         -3.2335546785        3.6377826372        0.3223810807
 C         -2.4893234995        3.4466432587       -0.8325919823
 C         -1.6530422217        2.3535767159       -0.9517753950
 C         -3.6263406502       -0.7428467915       -0.3348191931
 C         -4.8640989998       -1.3277565519       -0.4119452335
 H         -6.0264571789       -3.1230018879       -0.1819001235
 H         -4.0741060553       -4.5039736001        0.4591294372
 H         -1.8336884201       -3.4774716377        0.6046360774
 H          1.7810926430       -3.6362164080        0.3920003217
 H          4.1438173618       -4.4375591676        0.4357257761
 H          5.9691540878       -2.7945013850        0.1610936523
 H          5.4923909588       -0.4445547673       -0.1423122752
 H          5.0333363201        1.4058105806       -0.5907039162
 H          4.5221854093        3.7681911941       -0.7766397905
 H          2.2021066747        4.5775541709       -0.4459151288
 H          0.4002731903        2.9804388309       -0.0579886163
 H         -2.2364890741        0.9083992965        2.0570769036
 H         -3.7227526475        2.8685938766        2.2608188000
 H         -3.8850295147        4.4936758306        0.4096075785
 H         -2.5663508204        4.1503442883       -1.6480717741
 H         -1.0804750871        2.1908568100       -1.8533179047
 H         -3.5150719699        0.2921830430       -0.6099036074
 H         -5.7129868950       -0.7316433770       -0.7155819452
  47
  -72.5048968290000       0.212951598588804      !
 C         -5.0739253976       -2.7089515671       -0.1962462079
 C         -3.9421491644       -3.4750107302       -0.4871525882
 C         -2.6927961489       -2.9237282862       -0.4181127228
 C         -2.5098605998       -1.5509959457       -0.0697208262
 C         -1.1958314051       -1.0645722006       -0.0738667561
 N         -0.1348156763       -1.9045257958       -0.1009422273
 C          0.9520278067       -1.1697947884       -0.0228830428
 C          2.3062188458       -1.6073018704        0.0776685982
 C          2.6110797709       -2.9605215968        0.2243104349
 C          3.9212667214       -3.3673820392        0.3947820631
 C          4.9252712384       -2.4132062146        0.4304914442
 C          4.6327120174       -1.0677966756        0.2744931633
 C          3.3223855415       -0.6224858992        0.0768103926
 C          2.9880433360        0.7777908021       -0.1358632842
 C          3.9715704002        1.7342676251       -0.3609256974
 C          3.6715278948        3.0650192887       -0.5944585088
 C          2.3383289189        3.4856014801       -0.6219867656
 C          1.3332953527        2.5856513967       -0.4075241901
 C          1.6110110910        1.2130306220       -0.1596487000
 C          0.6271862863        0.2384634376       -0.0110015089
 N         -0.7479917034        0.2868260240       -0.0250679235
 C         -1.5301644934        1.4358219628        0.1268668452
 C         -2.4795136645        1.7836640304       -0.8359482889
 C         -3.2371073858        2.9267614798       -0.6694068928
 C         -3.0597255599        3.7313446977        0.4461614075
 C         -2.1142846317        3.3884378087        1.4022095821
 C         -1.3505264719        2.2493168845        1.2478677528
 C         -3.6721958164       -0.8071670208        0.2777101146
 C         -4.9148949396       -1.3830096885        0.2036497579
 H         -6.0591085311       -3.1437506663       -0.2612339721
 H         -4.0588652617       -4.5102098874       -0.7732008742
 H         -1.8109779106       -3.4983051844       -0.6495046430
 H          1.7967616614       -3.6678710202        0.2129016350
 H          4.1580415193       -4.4140179279        0.5102890969
 H          5.9512567382       -2.7157990807        0.5821633962
 H          5.4467172499       -0.3621191249        0.3220597574
 H          5.0093765160        1.4412309634       -0.3793544980
 H          4.4660611417        3.7740394043       -0.7691496137
 H          2.1044910536        4.5205915285       -0.8228915287
 H          0.3073917473        2.9104815138       -0.4587305888
 H         -2.6121874353        1.1518130699       -1.7012351990
 H         -3.9683274665        3.1948642691       -1.4172052465
 H         -3.6553405502        4.6224595488        0.5712294326
 H         -1.9774128656        4.0086625047        2.2754546048
 H         -0.6126107240        1.9733526653        1.9870657982
 H         -3.5789297025        0.2008847214        0.6436790429
 H         -5.7852171868       -0.7998757590        0.4693601536
  47
  -72.5046483505000       0.163714856763509      !
 C         -5.0622184721       -2.6022741325        0.4713942065
 C         -3.9808117814       -3.4150501423        0.1223296986
 C         -2.7275212389       -2.8854771263       -0.0147169195
 C         -2.4897651863       -1.4918213355        0.1875332699
 C         -1.1756080292       -1.0344451330        0.0470808040
 N         -0.1255492667       -1.8791213637       -0.0762907152
 C          0.9660521277       -1.1499762538       -0.0195067672
 C          2.3153268352       -1.6011069006       -0.1238605811
 C          2.5977941007       -2.9527045992       -0.3226757995
 C          3.9041340355       -3.3813695165       -0.4637407194
 C          4.9287735448       -2.4500933302       -0.4076394611
 C          4.6577662441       -1.1069009560       -0.2053478452
 C          3.3490027031       -0.6382819498       -0.0489790282
 C          3.0314254461        0.7662370882        0.1513374900
 C          4.0282560252        1.7186472292        0.3360919336
 C          3.7514173686        3.0665146597        0.4777982489
 C          2.4291126839        3.5168137010        0.4075877860
 C          1.4113015925        2.6202159406        0.2511280180
 C          1.6592072488        1.2220257826        0.1626711515
 C          0.6561320315        0.2586460371        0.1076179122
 N         -0.7200154674        0.3151364522        0.1324317926
 C         -1.5485631792        1.4192567867       -0.1296380377
 C         -1.7459296563        2.4146628041        0.8269586138
 C         -2.5841349392        3.4775101869        0.5472708632
 C         -3.2344296372        3.5549304193       -0.6750449760
 C         -3.0510089728        2.5575087219       -1.6197542690
 C         -2.2146419211        1.4914179860       -1.3520101531
 C         -3.6031037406       -0.6873538531        0.5630331385
 C         -4.8492090419       -1.2421996007        0.6968629148
 H         -6.0501430133       -3.0227373170        0.5768166826
 H         -4.1401705482       -4.4712267212       -0.0398726802
 H         -1.8830592483       -3.4988207810       -0.2831461195
 H          1.7690328284       -3.6416139252       -0.3675707418
 H          4.1233396409       -4.4262256903       -0.6220547333
 H          5.9541624197       -2.7692738596       -0.5260330185
 H          5.4891874702       -0.4207622827       -0.1853403896
 H          5.0610550928        1.4112128913        0.3788373890
 H          4.5559266670        3.7700250888        0.6273547525
 H          2.2152635655        4.5728535175        0.4810866344
 H          0.3963929959        2.9735841587        0.1891485384
 H         -1.2523886364        2.3370647325        1.7850629521
 H         -2.7366114628        4.2463493716        1.2901039828
 H         -3.8871762007        4.3876058050       -0.8876837519
 H         -3.5581107709        2.6122575724       -2.5713386466
 H         -2.0672960747        0.7070059260       -2.0797758887
 H         -3.4655154699        0.3589362213        0.7773812595
 H         -5.6796800577       -0.6152896261        0.9892900952
