57
 energy: -92.083413201544 gnorm: 0.000026219160 xtb: 6.7.1 (edcfbbe)
C           -6.91511967267239        1.66221921797979        1.67053833221472
C           -6.04299013602360        2.67396859072261        1.30339293755673
C           -4.75603979669280        2.36836604358450        0.90380901592792
C           -4.33246843120190        1.04254373368920        0.85191326892926
C           -2.95968852794979        0.74009611728663        0.43192997337212
N           -2.01911803268283        1.54798616875602        0.86184292032432
C           -0.73515708538749        1.23835725047872        0.61298375862948
C            0.30082852544643        2.09137198358975        1.04379463785379
C            1.60245290847905        1.72059831922370        0.86864722836944
C            1.93096730251279        0.48891587852343        0.25676101260745
N            3.28905738613172        0.13824637076463        0.12200117097358
C            3.80865355187047       -0.99370945459566        0.75739862356065
C            3.02919783993916       -1.83412700802511        1.54206495775815
C            3.58285664457348       -2.94230607584130        2.16492966235355
C            4.92559899397741       -3.22618068918314        2.02149606604984
C            5.72389659477142       -2.38156691880556        1.26486883524414
C            5.17771305117527       -1.27259054414113        0.64578200078858
O            6.04197630325082       -0.46672235005157       -0.05301052686909
C            5.51166270819211        0.62475828069707       -0.69324420387712
C            6.38345357479152        1.40659779380152       -1.42788744377277
C            5.91530180386996        2.50886787111705       -2.12785288233127
C            4.56818016611578        2.80735552039507       -2.10441403540627
C            3.68969267762034        2.02642453390634       -1.36881923446031
C            4.14828956850617        0.94171912420462       -0.63152744766455
C            0.94007948895054       -0.35090977288225       -0.19345465292038
C           -0.40691999041209        0.01572223194432       -0.03526744969877
N           -1.38181576983035       -0.75627954942578       -0.55280332678641
C           -2.63057617511613       -0.39492134751158       -0.38186942382069
C           -3.64795533643615       -1.18322765857355       -1.08701527621689
C           -4.73018497698036       -0.56855860809040       -1.71322466161225
C           -5.66683067936138       -1.33136929447391       -2.38413023849092
C           -5.53722217554352       -2.70989404978018       -2.43681709570813
C           -4.45324077772538       -3.32482931159593       -1.83203030154465
C           -3.50830592990977       -2.56653343304881       -1.16747903656945
C           -5.20814500570355        0.03073923279212        1.24041725750153
C           -6.49109258235482        0.34331388204012        1.64733099917776
H           -7.92138142431459        1.90086898648645        1.98183884861689
H           -6.36740816268205        3.70391165432936        1.33119011878375
H           -4.06423951320345        3.14665718207351        0.61974804212329
H            0.03514300708918        3.01809803573988        1.52773159589709
H            2.40618057932577        2.35519026909533        1.21254281674309
H            1.98137398533871       -1.61760640495732        1.67715771594429
H            2.95101677772620       -3.57843019647119        2.76550220222778
H            5.36018490419750       -4.08991290034107        2.49929391824308
H            6.78053940759086       -2.56171773406403        1.14763251583136
H            7.42625296166154        1.13273461392208       -1.44243010214612
H            6.60353139186575        3.11570332355268       -2.69469314608753
H            4.18501540491517        3.64809509428370       -2.66199195214080
H            2.63634365989590        2.25948952252741       -1.37451303384894
H            1.17178469945156       -1.28386875422911       -0.68356864449881
H           -4.82757992888020        0.50700493488313       -1.68854405505567
H           -6.50176685248736       -0.84779774657429       -2.86949479563049
H           -6.27631970460735       -3.30256078085403       -2.95538271306569
H           -4.34381142969468       -4.39831622109827       -1.88127545188631
H           -2.65582894207509       -3.03163801076560       -0.69636916840875
H           -4.87782781877449       -0.99776200056185        1.23981954622616
H           -7.16342391501483       -0.44617369423359        1.94942518890432
