  57
        -92.02680396
 C         -6.9377404456        1.7599988417       -1.5952670704
 C         -6.0289587114        2.7431181865       -1.2388709266
 C         -4.7498158576        2.3989507578       -0.8481631545
 C         -4.3642255147        1.0589313685       -0.7962703856
 C         -2.9958402755        0.7275842332       -0.4040825649
 N         -2.0224258710        1.5173154123       -0.8496415738
 C         -0.7374070957        1.2408795518       -0.6575493928
 C          0.2898119765        2.0638334125       -1.1169030992
 C          1.6197227362        1.7107042139       -0.9454058968
 C          1.9483052740        0.5297329272       -0.2976168807
 N          3.3100951891        0.1683742086       -0.1350958449
 C          4.1501918897        0.9276717018        0.6671937362
 C          3.6891654399        2.0158336425        1.4030351075
 C          4.5558751320        2.7531577266        2.1906630232
 C          5.8952448239        2.4157742329        2.2655569620
 C          6.3673915471        1.3208644697        1.5594079925
 C          5.5066214598        0.5775782202        0.7714095311
 O          6.0329026469       -0.5051305913        0.1193972949
 C          5.1883797815       -1.2494376361       -0.6600675776
 C          5.7315574436       -2.3389779252       -1.3176149107
 C          4.9378063264       -3.1235214462       -2.1392068913
 C          3.6027988210       -2.8044895668       -2.3087904134
 C          3.0520936134       -1.7159544959       -1.6548934397
 C          3.8286417287       -0.9293109407       -0.8085074885
 C          0.9476464511       -0.3109357238        0.1969916015
 C         -0.3923866271        0.0159657979        0.0340984446
 N         -1.3816396687       -0.7311012557        0.5233161621
 C         -2.6604419140       -0.4005885904        0.3732860780
 C         -3.6555720393       -1.2277746101        1.0535890482
 C         -4.7554459625       -0.6630428143        1.7000261704
 C         -5.6627860187       -1.4684160535        2.3592644164
 C         -5.4868901237       -2.8432153941        2.3899799576
 C         -4.3843477260       -3.4087931595        1.7700956512
 C         -3.4705613219       -2.6093819628        1.1117496813
 C         -5.2771459768        0.0762482568       -1.1799754502
 C         -6.5534862468        0.4282435577       -1.5720471869
 H         -7.9384662481        2.0299538188       -1.8985966733
 H         -6.3194388753        3.7833442562       -1.2662396323
 H         -4.0349920191        3.1585310453       -0.5700938548
 H          0.0238402082        2.9702231338       -1.6362153765
 H          2.4032030052        2.3497140276       -1.3240198575
 H          2.6441991544        2.2779790972        1.3570220454
 H          4.1755504316        3.5947810856        2.7483786487
 H          6.5723993713        2.9917966942        2.8760073482
 H          7.4021984527        1.0221627363        1.6087932691
 H          6.7788217385       -2.5522617464       -1.1753335232
 H          5.3675909768       -3.9722148942       -2.6471955867
 H          2.9794154796       -3.4012928484       -2.9562963344
 H          2.0133754247       -1.4672776870       -1.8013286116
 H          1.2050496291       -1.2101214589        0.7336726377
 H         -4.8898320052        0.4085204277        1.6938833102
 H         -6.5116292429       -1.0214224569        2.8556806989
 H         -6.2014934117       -3.4693974921        2.9035730502
 H         -4.2358547467       -4.4784887995        1.8020569040
 H         -2.6076651534       -3.0414962806        0.6276852770
 H         -4.9794240186       -0.9618868313       -1.1828095420
 H         -7.2524427905       -0.3406751410       -1.8675672645
