57
 energy: -92.083339666358 gnorm: 0.000060521137 xtb: 6.7.1 (edcfbbe)
C           -6.68702671197796       -1.98770346711091        1.23165376828831
C           -5.81150007376247       -1.85854106966746        2.29733889603794
C           -4.51810281631442       -1.42222242472244        2.08236057764660
C           -4.09163474776832       -1.09405458492199        0.79782511090962
C           -2.71294874924689       -0.63476607617785        0.59266516199246
N           -1.77800664029256       -1.25520349304039        1.27282772847515
C           -0.49104209374343       -0.94826275168027        1.03389366251345
C            0.53896744990893       -1.58912082332080        1.75148398881221
C            1.84308628083561       -1.32713410275538        1.44627994176738
C            2.17986289108539       -0.41792662362158        0.41733360117632
N            3.54137988642350       -0.17431231809307        0.14501810521663
C            4.36628062730196       -1.21640794578354       -0.28420536829176
C            3.86867064780673       -2.48016851808625       -0.57675506115375
C            4.71289045187214       -3.49423883543663       -1.00323147968586
C            6.06372215978442       -3.25861944824552       -1.15807701835671
C            6.57069537074743       -1.99274614616846       -0.90316649854092
C            5.73345393342605       -0.97849231577171       -0.47764026379687
O            6.30094889801948        0.25397046530269       -0.27339022089659
C            5.47172930119448        1.27611347161748        0.11768908455722
C            6.05654908618726        2.51438535845421        0.30716726999783
C            5.29444191534593        3.59137947674482        0.73455053025394
C            3.94880010978020        3.41423293136918        0.98338349817596
C            3.35651240919573        2.17527188428320        0.79135115699350
C            4.09991751357779        1.09273468053168        0.33883063000697
C            1.19501641048168        0.22896954657466       -0.29033124966316
C           -0.15461905426402       -0.00976467304783        0.02006127742022
N           -1.12432405571651        0.67809555206852       -0.61336453588141
C           -2.37576471629054        0.41927768046025       -0.32033526787325
C           -3.38914729573352        1.27818512375962       -0.94511939193977
C           -4.47725468285528        1.75772662256315       -0.21927348608315
C           -5.41032638433021        2.57459418635116       -0.82885805376195
C           -5.27110816568813        2.91985241202634       -2.16350650320961
C           -4.18085420461059        2.46171352938331       -2.88481944773048
C           -3.23950469749677        1.65207369042268       -2.27820728388078
C           -4.97061603752577       -1.24463556492892       -0.27258383480691
C           -6.26002057457710       -1.69003120073190       -0.05244836951597
H           -7.69845514848825       -2.32710582327759        1.39970468705921
H           -6.13823900618363       -2.10063395242878        3.29805453138603
H           -3.82384873378338       -1.32128292366422        2.90269516149911
H            0.26680266083202       -2.28196661778052        2.53217331959881
H            2.64306209048078       -1.80557785554344        1.99227857955375
H            2.81173559001554       -2.67258733306843       -0.47722328315604
H            4.29992104324553       -4.46797444720020       -1.21737452931822
H            6.72521188024200       -4.04463588523291       -1.48647075271727
H            7.61764487068944       -1.76981989832932       -1.03301098509314
H            7.11405469787133        2.61236180084861        0.12062923917927
H            5.75912252141737        4.55401957564954        0.87809336666821
H            3.34444803179806        4.23730552403186        1.33238703106243
H            2.30670556960615        2.05014021724139        1.00426720217580
H            1.43270085315127        0.92823848792831       -1.07699901430025
H           -4.58238852594765        1.50425886100045        0.82552686628695
H           -6.25020043440471        2.94455826860804       -0.25942204228049
H           -6.00764369318683        3.55147183715441       -2.63783911994221
H           -4.06375269020298        2.73860587771399       -3.92230610336979
H           -2.38249391643417        1.29184008894065       -2.82668676947554
H           -4.63824720812449       -1.02897758481544       -1.27753969248317
H           -6.93526509337019       -1.80646244638854       -0.88733634750569
