  57
        -92.08339960
 C         -6.9149698378        1.6608535285        1.6744957706
 C         -6.0436474480        2.6732686564        1.3072966525
 C         -4.7571234545        2.3686260463        0.9056286075
 C         -4.3331271628        1.0430498179        0.8518182484
 C         -2.9603832648        0.7410263252        0.4316673350
 N         -2.0198601924        1.5502205584        0.8593904945
 C         -0.7359173802        1.2400288466        0.6113883216
 C          0.3001688481        2.0942760263        1.0395746544
 C          1.6017444718        1.7226614380        0.8661108986
 C          1.9304877445        0.4890121530        0.2581523636
 N          3.2885382876        0.1386013862        0.1236414668
 C          3.8083897246       -0.9939166701        0.7580420794
 C          3.0293730238       -1.8349504961        1.5425224422
 C          3.5835398262       -2.9430098464        2.1651698493
 C          4.9264735491       -3.2262041868        2.0219587974
 C          5.7242799730       -2.3811955113        1.2653273981
 C          5.1774881283       -1.2725256929        0.6461618142
 O          6.0414683358       -0.4667343678       -0.0529942756
 C          5.5107535569        0.6242785267       -0.6936272820
 C          6.3822529042        1.4050591707       -1.4298021627
 C          5.9141516777        2.5073834244       -2.1296495370
 C          4.5672666196        2.8068673820       -2.1045735217
 C          3.6890373673        2.0266138486       -1.3679741161
 C          4.1475561500        0.9417985766       -0.6307112271
 C          0.9394649562       -0.3521743533       -0.1892783837
 C         -0.4074884237        0.0151779831       -0.0326009772
 N         -1.3822527345       -0.7579791423       -0.5486443513
 C         -2.6309666529       -0.3956980065       -0.3795467777
 C         -3.6478563861       -1.1838411908       -1.0856136807
 C         -4.7260156375       -0.5677040189       -1.7174468934
 C         -5.6612516246       -1.3294441129       -2.3915754328
 C         -5.5345486805       -2.7083916929       -2.4412127565
 C         -4.4550676070       -3.3248845766       -1.8298374746
 C         -3.5112214763       -2.5676286123       -1.1625036531
 C         -5.2081554680        0.0305457376        1.2401161376
 C         -6.4907118198        0.3421159701        1.6488921244
 H         -7.9208048618        1.8987585067        1.9875941984
 H         -6.3685462976        3.7030238737        1.3361479278
 H         -4.0658379224        3.1475833935        0.6221213967
 H          0.0346007812        3.0225850324        1.5205241106
 H          2.4053815869        2.3584697967        1.2079422782
 H          1.9815235723       -1.6188153139        1.6781473718
 H          2.9518878166       -3.5796881758        2.7653569851
 H          5.3614410280       -4.0898558413        2.4995710247
 H          6.7810083114       -2.5607707899        1.1478805320
 H          7.4247762679        1.1301460384       -1.4455567054
 H          6.6020610669        3.1132601981       -2.6979009370
 H          4.1839369987        3.6475953387       -2.6620722414
 H          2.6358568068        2.2603715900       -1.3731903097
 H          1.1708974830       -1.2863409258       -0.6772139630
 H         -4.8211605540        0.5081460961       -1.6945314245
 H         -6.4925921826       -0.8447327527       -2.8820571065
 H         -6.2719225734       -3.3001491186       -2.9633093529
 H         -4.3478851847       -4.3987298343       -1.8766908378
 H         -2.6618139214       -3.0339353782       -0.6869725501
 H         -4.8774576063       -0.9978060658        1.2382472230
 H         -7.1624434447       -0.4479605925        1.9508221377
