  52
  -78.9666495520000       0.683312761789433      !
 O         -2.1197421461       -0.9006282868        2.4129518526
 C         -2.7970710973        0.2997983076        2.0906796353
 C         -3.5730247642        0.1991424795        0.8006286963
 C         -4.9599577546        0.2239661600        0.7915937081
 C         -5.6635898181        0.1144095454       -0.3957187731
 C         -4.9818594273       -0.0289360318       -1.5919225507
 C         -3.5987417333       -0.0575140395       -1.5957459540
 C         -2.8864624931        0.0583962145       -0.4085970368
 C         -1.4049697257        0.0435216018       -0.4344670970
 C         -0.6991818091        1.2522030551       -0.4189663788
 C         -1.3698246351        2.5032992913       -0.3988638837
 C         -0.6735632402        3.6724540513       -0.3881601302
 C          0.7370623816        3.6622841870       -0.4061143361
 C          1.4165060291        2.4832506546       -0.4260181458
 C          0.7284280949        1.2414189172       -0.4236039869
 C          1.4163411400        0.0216461678       -0.4276877883
 C          2.8973245479        0.0116885907       -0.3966438387
 C          3.6066643726       -0.2402518698       -1.5647992168
 C          4.9898634711       -0.2435966806       -1.5629786936
 C          5.6757642337        0.0022622416       -0.3860808340
 C          4.9756548654        0.2459095646        0.7831055599
 C          3.5883468905        0.2553600967        0.7939992194
 C          2.8237103718        0.5164104760        2.0690397983
 O          1.9963099905       -0.5646022018        2.4511562278
 C          0.7097141009       -1.1892251360       -0.4548542592
 C          1.3776528408       -2.4420335559       -0.4432924391
 C          0.6795227762       -3.6099246592       -0.4566155215
 C         -0.7309128920       -3.5982845034       -0.4767689922
 C         -1.4087332856       -2.4186376191       -0.4773300613
 C         -0.7179752085       -1.1770853456       -0.4642620894
 H         -1.6272456036       -1.1467209772        1.6184841121
 H         -2.0695981066        1.1195699961        2.0159641979
 H         -3.4691271222        0.4992148353        2.9270655048
 H         -5.4912276810        0.3302491607        1.7259787038
 H         -6.7425204709        0.1383972401       -0.3857504282
 H         -5.5248212337       -0.1178739831       -2.5205808319
 H         -3.0569690782       -0.1663052373       -2.5244644358
 H         -2.4487026864        2.5034544627       -0.3945314013
 H         -1.1945765822        4.6178819729       -0.3725107054
 H          1.2718179195        4.6001653075       -0.4083182986
 H          2.4950733044        2.4690788435       -0.4486542652
 H          3.0612030569       -0.4289812582       -2.4784361390
 H          5.5292889586       -0.4366029069       -2.4779407815
 H          6.7549788083        0.0018411435       -0.3766532657
 H          5.5111187873        0.4307847248        1.7027836296
 H          2.2093466341        1.4193392888        1.9441207409
 H          3.5137053105        0.6747770183        2.8996469238
 H          1.4695199845       -0.7825496003        1.6702518955
 H          2.4553564184       -2.4457139117       -0.4199379270
 H          1.1990886379       -4.5559587239       -0.4493464325
 H         -1.2665658867       -4.5352424080       -0.4882010988
 H         -2.4869751949       -2.4027033898       -0.4829200782
  52
  -78.9659228068000       0.316687238210567      !
 O         -1.9727387769       -0.5864222316        2.4377178547
 C         -2.7889924472        0.5065953528        2.0639582756
 C         -3.5676696537        0.2575272552        0.7945886094
 C         -4.9550959064        0.2570219462        0.7973103526
 C         -5.6681416112        0.0233393870       -0.3662709025
 C         -4.9953042947       -0.2200646231       -1.5514261596
 C         -3.6121510587       -0.2251493319       -1.5669970551
 C         -2.8901664249        0.0157138213       -0.4042756737
 C         -1.4094464932        0.0131095993       -0.4447906945
 C         -0.7117445092        1.2268587889       -0.4484335731
 C         -1.3895802657        2.4739188163       -0.4573330695
 C         -0.7005504424        3.6473503733       -0.4364714430
 C          0.7096838073        3.6457207920       -0.4026554449
 C          1.3965324167        2.4711407805       -0.4037359610
 C          0.7159600912        1.2254286558       -0.4394053042
 C          1.4121594103        0.0077742725       -0.4368333027
 C          2.8926276839        0.0011691398       -0.3902597464
 C          3.6189339881        0.2773164847       -1.5424670977
 C          5.0019555801        0.2617209914       -1.5249604755
 C          5.6705747200       -0.0279506407       -0.3479708949
 C          4.9534465741       -0.2944584225        0.8058885798
 C          3.5660524254       -0.2847652303        0.8011530907
 C          2.7848441283       -0.5730349844        2.0605357292
 O          1.9526839389        0.4991907989        2.4572774507
 C          0.7143087955       -1.2057918010       -0.4674841844
 C          1.3916613480       -2.4528161424       -0.4978810117
 C          0.7022401468       -3.6262005859       -0.5029360831
 C         -0.7081531097       -3.6248524669       -0.4769457483
 C         -1.3945767327       -2.4501970340       -0.4594686533
 C         -0.7133045568       -1.2042140016       -0.4661131586
 H         -1.4491593108       -0.8032337381        1.6539472376
 H         -2.1635292009        1.4011625513        1.9362117553
 H         -3.4702626283        0.6720858129        2.9004055964
 H         -5.4803409201        0.4403508122        1.7233831980
 H         -6.7471960698        0.0281257627       -0.3456140200
 H         -5.5448525691       -0.4060944444       -2.4614713744
 H         -3.0768702682       -0.4120999708       -2.4869940749
 H         -2.4678459321        2.4679623334       -0.4830296693
 H         -1.2272540648        4.5896782590       -0.4439936437
 H          1.2381826845        4.5865614186       -0.3777122806
 H          2.4743250487        2.4637611629       -0.3773696109
 H          3.0868937459        0.4996184022       -2.4565074777
 H          5.5546778417        0.4751972042       -2.4272645350
 H          6.7494940696       -0.0423001285       -0.3259463587
 H          5.4755527088       -0.5130235925        1.7259042434
 H          3.4650319996       -0.7497390394        2.8956174297
 H          2.1722785925       -1.4728257234        1.9087693720
 H          1.4289293184        0.7273453442        1.6769626187
 H          2.4699664019       -2.4472911403       -0.5195010859
 H          1.2289228498       -4.5683157789       -0.5256696821
 H         -1.2370945527       -4.5657814008       -0.4730666588
 H         -2.4725656661       -2.4427706783       -0.4399271606
