  52
  -79.3022061900000       0.558756034833767      !
 O         -1.9642443662       -0.5930751560        2.4429620513
 C         -2.7889380177        0.4929442228        2.0673345670
 C         -3.5680278160        0.2344622453        0.8001019080
 C         -4.9554081809        0.2240585427        0.8052745190
 C         -5.6687937285       -0.0182479253       -0.3563328540
 C         -4.9963018967       -0.2604455097       -1.5419312752
 C         -3.6131768937       -0.2557012539       -1.5599284814
 C         -2.8909054684       -0.0061531968       -0.3992185106
 C         -1.4102776290        0.0016922510       -0.4423394468
 C         -0.7212739112        1.2203756276       -0.4508909806
 C         -1.4080179184        2.4625310481       -0.4623716466
 C         -0.7273553018        3.6409106259       -0.4462813770
 C          0.6829114096        3.6494535054       -0.4149502689
 C          1.3781327060        2.4798099138       -0.4136850377
 C          0.7064180305        1.2291672902       -0.4443788955
 C          1.4113039475        0.0165285022       -0.4393471865
 C          2.8918605819        0.0206362825       -0.3953675162
 C          3.6141648686        0.2984564171       -1.5496865684
 C          4.9972910152        0.2927898853       -1.5345743862
 C          5.6700142917        0.0114814922       -0.3578948789
 C          4.9568219148       -0.2566288089        0.7980308812
 C          3.5693877747       -0.2568567727        0.7957153534
 C          2.7924564855       -0.5468649476        2.0573426815
 O          1.9533488468        0.5205935089        2.4523028300
 C          0.7220904960       -1.2020771452       -0.4650894945
 C          1.4082825359       -2.4443198686       -0.4929041657
 C          0.7272557774       -3.6226070461       -0.4931874291
 C         -0.6830636403       -3.6312505866       -0.4647114387
 C         -1.3778319099       -2.4614786636       -0.4495811704
 C         -0.7054931218       -1.2106888602       -0.4612029573
 H         -1.4404964700       -0.8085257946        1.6589287417
 H         -2.1701067178        1.3915618954        1.9357746213
 H         -3.4699137875        0.6561096365        2.9044781158
 H         -5.4803341902        0.4064485338        1.7317135555
 H         -6.7478171799       -0.0211036668       -0.3337856424
 H         -5.5460928537       -0.4531620034       -2.4504371639
 H         -3.0781789046       -0.4416227675       -2.4802984749
 H         -2.4862566611        2.4487973987       -0.4861464803
 H         -1.2607913488        4.5794264068       -0.4557284013
 H          1.2047165556        4.5941153294       -0.3937904700
 H          2.4559948903        2.4802065241       -0.3891992221
 H          3.0789567034        0.5141722236       -2.4634555156
 H          5.5468995403        0.5074615219       -2.4384953812
 H          6.7490453966        0.0049032798       -0.3377317249
 H          5.4820799588       -0.4686607367        1.7177812927
 H          3.4753447644       -0.7161666301        2.8917537605
 H          2.1860724836       -1.4514641751        1.9093845227
 H          1.4266174368        0.7426277162        1.6722262513
 H          2.4864812418       -2.4311613410       -0.5164444776
 H          1.2606166285       -4.5610023269       -0.5139966260
 H         -1.2052604515       -4.5759161993       -0.4570481120
 H         -2.4558106743       -2.4616902893       -0.4281592205
  52
  -79.3019830600000       0.441243965166233      !
 O         -2.1090417334       -0.9083967379        2.4194075831
 C         -2.7954921533        0.2861770071        2.0946965001
 C         -3.5729550516        0.1760593645        0.8063282838
 C         -4.9600436603        0.1909516471        0.7996666326
 C         -5.6649441635        0.0727624123       -0.3860644692
 C         -4.9842937471       -0.0693498624       -1.5830301620
 C         -3.6010159258       -0.0880627163       -1.5892087143
 C         -2.8875141659        0.0365412127       -0.4036756890
 C         -1.4060002951        0.0321667071       -0.4321159468
 C         -0.7088412702        1.2458984702       -0.4215229240
 C         -1.3883708118        2.4922295607       -0.4040267026
 C         -0.7004639711        3.6663532063       -0.3980940539
 C          0.7101648556        3.6662013719       -0.4185076503
 C          1.3979803914        2.4919942600       -0.4360390328
 C          0.7187989889        1.2452941626       -0.4286481275
 C          1.4154023873        0.0304576589       -0.4302511345
 C          2.8964710184        0.0311695336       -0.4017917289
 C          3.6055550124       -0.2192518910       -1.5704289564
 C          4.9887437695       -0.2127145582       -1.5710402026
 C          5.6749213213        0.0416145906       -0.3961052729
 C          4.9751285918        0.2838121724        0.7735717921
 C          3.5878096098        0.2833897142        0.7868858998
 C          2.8235516980        0.5428510863        2.0624776938
 O          2.0045645491       -0.5428745669        2.4493273057
 C          0.7173995689       -1.1855053671       -0.4525017230
 C          1.3942925456       -2.4334715764       -0.4383238631
 C          0.7045034887       -3.6063529142       -0.4468763538
 C         -0.7060123444       -3.6048453981       -0.4645749893
 C         -1.3922447378       -2.4300756154       -0.4675130835
 C         -0.7103542716       -1.1835887405       -0.4594258381
 H         -1.6161853393       -1.1533821611        1.6248207945
 H         -2.0740269342        1.1108911244        2.0162138111
 H         -3.4674965475        0.4833330718        2.9316595549
 H         -5.4904293817        0.2962803588        1.7346618092
 H         -6.7439996564        0.0890757815       -0.3742641170
 H         -5.5282246557       -0.1649870010       -2.5104547628
 H         -3.0600999563       -0.1958073192       -2.5185483549
 H         -2.4672132327        2.4846943559       -0.3977900723
 H         -1.2281916389        4.6080800473       -0.3843890319
 H          1.2382003040        4.6078658733       -0.4244968913
 H          2.4765802866        2.4854553493       -0.4605361766
 H          3.0598639308       -0.4146496141       -2.4825255674
 H          5.5279383941       -0.4046465663       -2.4863642673
 H          6.7541261502        0.0489281370       -0.3885817255
 H          5.5108606250        0.4753027755        1.6917388389
 H          2.2025347333        1.4409859424        1.9359086455
 H          3.5138446756        0.7086663234        2.8913818416
 H          1.4779845012       -0.7669523340        1.6700180202
 H          2.4720339924       -2.4293856134       -0.4168609164
 H          1.2308280099       -4.5486264984       -0.4376586112
 H         -1.2349755997       -4.5456345998       -0.4722229460
 H         -2.4705810877       -2.4218578790       -0.4712478160
