96
 energy: -153.303085722122 gnorm: 0.000132855854 xtb: 6.7.1 (edcfbbe)
N           -1.80751747326541        6.13373951514825       -1.69720012690095
C           -2.26728260030075        5.11955970432283       -1.42192068237151
C           -2.84450514497786        3.87179357879545       -1.09969557947655
C           -3.76521950970996        3.30992018651849       -1.96110190574839
C           -4.31708542765796        2.06088279533762       -1.68119028437180
C           -3.97308256405349        1.38623674501024       -0.52949820307031
N           -4.45649650536655        0.08689907943158       -0.31296708377480
C           -3.65536969328508       -1.03985719925673       -0.25831661552520
C           -2.20230189377665       -0.98659408248469       -0.32390869815207
C           -1.52827333117020       -0.15819682658208       -1.21840942140860
C           -0.15143623062047       -0.07267060661004       -1.18502785731180
C            0.58484872031868       -0.81647603402398       -0.26756284296780
C            2.05302555358997       -0.67720424192171       -0.19965040224633
C            2.61078367528556        0.53047108494041        0.24715355021890
C            1.80444863427357        1.62646973002813        0.65357003093815
C            2.36200321445479        2.78542893596618        1.09866350003608
C            3.76158585484513        2.91423477444452        1.19272377059370
C            4.57147648863425        1.88323335447209        0.82851930126002
C            4.03104596168865        0.66832486005526        0.33272330782201
C            4.84946772141554       -0.40361664926788       -0.05259700356827
N            6.24853288576864       -0.26775611393051        0.02244240546365
C            7.08092456920962       -0.96028988417725        0.87540721360487
C            6.75806420136167       -1.89708833893118        1.84632263712827
C            7.79280698739636       -2.43816351536562        2.58390091385287
C            9.11604294744237       -2.05649957178540        2.36887615187117
C            9.44026579486918       -1.11662347821198        1.41109943230327
C            8.41824689655710       -0.55771706064144        0.65455812266668
C            8.37929632553189        0.42392539308229       -0.39326217426215
C            9.35081280378952        1.16847186633812       -1.04991165579765
C            8.95572783486415        2.03978725692157       -2.04512630695438
C            7.61295872856508        2.17185379642801       -2.39497607096955
C            6.62761651031491        1.44285481644780       -1.75850248436535
C            7.01957783450991        0.57397216163588       -0.75060282759530
C            4.29823964313612       -1.60728185836296       -0.51574316197599
C            5.11051250419899       -2.68616824325453       -0.95176690854253
C            4.55570257581913       -3.84173466595026       -1.40849126945855
C            3.15518861630442       -3.98403114854458       -1.46685953164104
C            2.34257691522246       -2.96575126793844       -1.07315942220534
C            2.87721492798128       -1.74632141839348       -0.58016082740794
C           -0.08758414320345       -1.68560559491805        0.58782519640056
C           -1.46384439978816       -1.77289630059482        0.55884624709996
N           -4.35397388195141       -2.13201018948806       -0.11108834765101
C           -5.65819327689902       -1.74450128263158       -0.07574107883547
C           -6.81200238684902       -2.56915768756113        0.03278007080664
C           -6.70274770496200       -3.96150235138058        0.11096785881935
C           -7.82969749192315       -4.74139555665977        0.18109943383250
C           -9.08396625189927       -4.13415296071108        0.16962796704885
C           -9.20262357057769       -2.76585952043709        0.09901178511093
C           -8.07474175511128       -1.93316615588715        0.03568479957833
C           -8.16599167048122       -0.48379977106308       -0.00127485105099
C           -9.39884852236259        0.17928457382900        0.07961334599654
C           -9.48994775329019        1.55088094711009        0.09518815670468
C           -8.33738655409867        2.32891355548147        0.05049305369932
C           -7.11057308301932        1.71943279340378       -0.03939972722656
C           -6.99833776912398        0.32278814820233       -0.09080450392159
C           -5.75399970928887       -0.35966605287386       -0.19039066585690
C           -3.07014881161114        1.95820396350200        0.40825375725195
C           -2.74508871160619        1.32960629963479        1.62848351066873
C           -1.83960270356012        1.89371625057481        2.48268805791283
C           -1.22523165541785        3.11331329689901        2.16360196495989
C           -1.54331681337024        3.76428507137434        1.00391211073531
C           -2.47634945562903        3.21022290115664        0.10470317557425
H           -4.04199782993481        3.82854152252552       -2.86685730247166
H           -5.01175221828674        1.61027924046276       -2.37494630494946
H           -2.07673562805198        0.41199457833123       -1.95339860501062
H            0.36529417222694        0.57600497912242       -1.87754780522756
H            0.73005467612741        1.52585315238157        0.60809640339987
H            1.73341987797782        3.61285400022846        1.39195158637845
H            4.18562895007438        3.83479365844347        1.56498051567283
H            5.64280377785880        1.97952775250687        0.91798796508598
H            5.73304467830777       -2.19267485708821        2.01451853372613
H            7.57231686326472       -3.17242941722306        3.34469992333735
H            9.89667104242949       -2.50400475527505        2.96604079357146
H           10.46530666723512       -0.81789041957757        1.25069119809758
H           10.39216985008466        1.06307920935630       -0.78506054431218
H            9.69584459496763        2.62861283574716       -2.56638618813731
H            7.33751750026137        2.85861575773521       -3.18170902993408
H            5.58772807515396        1.54519862872868       -2.03128222556523
H            6.18388097830059       -2.57532172265775       -0.92506304586368
H            5.18530383513110       -4.65410833494193       -1.73947306341765
H            2.73230096696980       -4.90525941793975       -1.83932581766734
H            1.27004319751865       -3.06925560480035       -1.13980454055639
H            0.47847462322287       -2.27898871874066        1.29112504019125
H           -1.98945715120132       -2.43660142902440        1.22787835063014
H           -5.71303109091710       -4.39105209747588        0.10658553435503
H           -7.75091814705429       -5.81681456219777        0.23985717407181
H           -9.97418911775920       -4.74453570472966        0.21710711154621
H          -10.19403108589430       -2.34166833812580        0.09038775993578
H          -10.31122375288821       -0.39127072073516        0.14184856204671
H          -10.45787723371209        2.02566899392138        0.15771488067907
H           -8.40596503761820        3.40585164522069        0.09077292618094
H           -6.21776357293896        2.32514161430739       -0.05162470498543
H           -3.22651910438521        0.39920717044745        1.88873974274127
H           -1.59457969120256        1.40293399022117        3.41222960960062
H           -0.50858398188501        3.53944395955857        2.84917719405940
H           -1.08941156047092        4.71332360465736        0.75765206546926
