96
 energy: -153.303282921588 gnorm: 0.000066127784 xtb: 6.7.1 (edcfbbe)
N           -1.58877465721700        5.90282877516770       -2.09062617797117
C           -2.06804550002927        4.92280234603677       -1.73610942576686
C           -2.66869232251574        3.71624914918243       -1.31511297575118
C           -3.60948225191634        3.11010270175180       -2.12306387200232
C           -4.18400664922367        1.89810132587471       -1.74366599851046
C           -3.84282252881257        1.30603982976830       -0.54657491326836
N           -4.35031653008723        0.03734564683553       -0.22772420913328
C           -3.56993073497035       -1.09679092784698       -0.08815690983718
C           -2.11635157236600       -1.07036999297711       -0.16518543827155
C           -1.44116601370946       -0.34040843577339       -1.14086025648153
C           -0.06380691054564       -0.26322036471561       -1.12287082510323
C            0.67246569514595       -0.91674916104003       -0.13831171383701
C            2.14039983760772       -0.77700418990815       -0.09125596925484
C            2.70398837332618        0.48399863742543        0.15926672712017
C            1.90429854068308        1.62980658198115        0.41252252829107
C            2.46628519119945        2.85494556826160        0.60099846520206
C            3.86490424615466        3.01413251304727        0.54760480221609
C            4.67051913163851        1.93583834861752        0.34777729057755
C            4.12508631678226        0.63743586560725        0.17286243096483
C            4.93895384595110       -0.49161683076545       -0.00184666214251
N            6.33812360677922       -0.34883797816457        0.03854452361082
C            7.08097292455435        0.01621913732036        1.14117247906990
C            6.65531781281983        0.29721316656805        2.43129452872164
C            7.61711366857649        0.62739133705141        3.36588454684482
C            8.96967334712431        0.67296921825320        3.03238152991872
C            9.39836221575101        0.38267693119681        1.75263282261755
C            8.45105040094663        0.04842368138263        0.79342297454646
C            8.52660111271979       -0.31122019510859       -0.59517176619434
C            9.57369015327896       -0.44413791979682       -1.49809582603100
C            9.28370896816301       -0.80725124427497       -2.79801166955728
C            7.97002473267131       -1.03072286747788       -3.20681114048700
C            6.91101697360247       -0.90428668827663       -2.32935271819748
C            7.19942237116079       -0.55146225218541       -1.01906234811226
C            4.38174132321837       -1.76010993807626       -0.22040520486393
C            5.18679363428523       -2.92070159208367       -0.35820128508684
C            4.62841888346227       -4.13516729171674       -0.61305566170522
C            3.23244582945088       -4.25926277484673       -0.75820810060417
C            2.42480299864584       -3.17499965079094       -0.60178787299384
C            2.96096070069697       -1.89587989504048       -0.29785492135273
C           -0.00226609042417       -1.69191458941820        0.80180218198788
C           -1.37933649876715       -1.77177357689955        0.78721232866394
N           -4.28740968880191       -2.16108637176910        0.14446689149552
C           -5.58448172468603       -1.74782519081060        0.15209864206103
C           -6.75290446351820       -2.54049718078899        0.32391740121294
C           -6.66899911771609       -3.92454394054966        0.50851893725048
C           -7.80996349868956       -4.67617740004180        0.63661924371339
C           -9.05301796608564       -4.04907575453611        0.57634414462429
C           -9.14677797832244       -2.68821181698103        0.40158608109009
C           -8.00390194882534       -1.88328688002049        0.27743057421765
C           -8.06875220649026       -0.43939512685401        0.13165900194955
C           -9.28899782799031        0.25059048345745        0.16480645970773
C           -9.35487634031997        1.62094015924184        0.07758891920939
C           -8.18839067542981        2.37192880362134       -0.02761120510704
C           -6.97322294761885        1.73483482149329       -0.07340349150107
C           -6.88677270150720        0.33644579276266       -0.01975059201529
C           -5.65538444253633       -0.37446512434143       -0.06889980411374
C           -2.91865437185280        1.92850152714737        0.33679429181462
C           -2.59349325663185        1.38860702036676        1.59879976465395
C           -1.66340734788969        1.99392945610606        2.39656783589313
C           -1.02534342921318        3.17073341678105        1.97844235460946
C           -1.34658898554803        3.74025914053647        0.77748839449363
C           -2.30196171209124        3.14042288164988       -0.06711719429492
H           -3.88452766680836        3.56372303109081       -3.06355815251234
H           -4.89446043006234        1.41071901489648       -2.39530487431521
H           -1.99028469640360        0.15947355397736       -1.92501878444923
H            0.45392484419590        0.30836195223009       -1.87957069808221
H            0.83140387432359        1.51477791728540        0.45766559182373
H            1.84181950069751        3.71625111175222        0.78542307509027
H            4.29204661647788        3.99772027496840        0.67339711577600
H            5.74222878244326        2.06012323446064        0.31560575872606
H            5.60775714987103        0.26129401322189        2.69141752801174
H            7.31510261073432        0.85439733531069        4.37774296561957
H            9.69060211449347        0.93699786292002        3.79184046681845
H           10.44718364144283        0.41198742598039        1.49816364687151
H           10.59135483071248       -0.26461986102739       -1.18537352837118
H           10.08404891860541       -0.91782149514810       -3.51455594490397
H            7.77626317081977       -1.30768974926122       -4.23260262897724
H            5.89363826019655       -1.07631408702408       -2.64807998130629
H            6.25734298208705       -2.82834187628596       -0.25561621656908
H            5.25202668877174       -5.01087685234724       -0.71360648683559
H            2.80857013585032       -5.22499255039010       -0.99039386412832
H            1.35559325420061       -3.27332865067518       -0.71386685960018
H            0.56258262655304       -2.21470519025119        1.55995536842039
H           -1.90577853094682       -2.36165704466632        1.52163484112679
H           -5.68726947934661       -4.37108598288597        0.53809372979857
H           -7.75074660684032       -5.74517936359486        0.77770217407227
H           -9.95420335657527       -4.63794189700378        0.66809526923021
H          -10.13030509364328       -2.24809150285413        0.35817626955672
H          -10.21141645974399       -0.29670865102748        0.27178163244234
H          -10.31370531237429        2.11696714236456        0.10637729521141
H           -8.23708670482391        3.44993968076930       -0.06813128059150
H           -6.06948885713529        2.32130629974927       -0.13230388132896
H           -3.09376696216039        0.49348836710098        1.93582744743415
H           -1.41731187560921        1.56913414673633        3.35780044284591
H           -0.28732605084618        3.62928137670180        2.61897058903482
H           -0.87748285642183        4.65867313730563        0.45530484948669
