  61
        -96.95991190
 C         -6.3075522555        0.1501220267        1.2553661692
 C         -5.3353782134       -0.0348149912        0.0759653121
 C         -6.1155523424       -0.3356731233       -1.2166778517
 C         -4.4254318739       -1.2078811642        0.3856038139
 C         -4.9783694564       -2.4658278028        0.5867132591
 C         -4.2050754917       -3.5651513590        0.9084384385
 C         -2.8390410519       -3.4098253519        1.0593449941
 C         -2.2639635715       -2.1716554601        0.8670704701
 C         -3.0401440766       -1.0663607930        0.5068855546
 N         -2.4292603974        0.1653415149        0.3016903203
 C         -1.0264700917        0.2680687137        0.4479462186
 C         -0.4947137111        0.8855549208        1.5595979549
 C          0.8850300508        0.9848805557        1.7292542920
 C          1.7454853163        0.4652041527        0.7833849634
 C          1.2302479467       -0.1591781608       -0.3710934788
 C          2.0986349717       -0.6827821188       -1.3509848064
 C          1.5864779283       -1.2774734572       -2.4849936465
 C          0.2050404357       -1.3589286690       -2.6767957672
 C         -0.6589905260       -0.8642288125       -1.7345634967
 C         -0.1716509059       -0.2611832403       -0.5570668607
 C          3.5590012925       -0.6025437081       -1.1697386720
 O          4.3493028691       -1.0564584110       -1.9691566914
 N          3.9959048358        0.0230986809       -0.0094983953
 C          5.4156540333        0.1095376385        0.1804875314
 C          6.0092755055       -0.5794391144        1.2257294739
 C          7.3777172874       -0.4911756457        1.4076280482
 C          8.1466369119        0.2721612740        0.5457719339
 C          7.5465507904        0.9542242064       -0.4988513687
 C          6.1775711823        0.8795606087       -0.6831860394
 C          3.1992453161        0.5741418667        0.9865048166
 O          3.6934709879        1.1153838761        1.9524410709
 C         -3.1622536196        1.3027604381       -0.0149607685
 C         -2.4969313078        2.5044190879       -0.2730077324
 C         -3.1973322168        3.6506770731       -0.5838680038
 C         -4.5782372991        3.6157788150       -0.6536224135
 C         -5.2357427030        2.4206256470       -0.4312835861
 C         -4.5553102469        1.2509942068       -0.1192006501
 H         -6.9042837593       -0.7443827367        1.4105384390
 H         -6.9817383821        0.9827550120        1.0750587325
 H         -5.7486894123        0.3521029231        2.1672283249
 H         -6.6903414421       -1.2522631654       -1.1191664266
 H         -6.8029351475        0.4716266076       -1.4525709427
 H         -5.4241945424       -0.4510474701       -2.0494827843
 H         -6.0458244879       -2.5964015783        0.4937133367
 H         -4.6672548657       -4.5296202596        1.0525224975
 H         -2.2179595329       -4.2497005683        1.3319558792
 H         -1.1995927686       -2.0576242158        1.0039042546
 H         -1.1615779766        1.2907512624        2.3061495271
 H          1.3012784076        1.4588744941        2.6052051841
 H          2.2741069480       -1.6718818980       -3.2178957647
 H         -0.1796859121       -1.8167444891       -3.5753414555
 H         -1.7260311296       -0.9306281443       -1.8853315834
 H          5.4014373339       -1.1725423555        1.8919196576
 H          7.8436386506       -1.0237198276        2.2231161641
 H          9.2151442775        0.3356486055        0.6885670194
 H          8.1444287231        1.5502164388       -1.1719095105
 H          5.7005730556        1.4086521765       -1.4941530978
 H         -1.4188260890        2.5379284765       -0.2351183952
 H         -2.6611986740        4.5679309563       -0.7750881360
 H         -5.1387067292        4.5070053017       -0.8903306011
 H         -6.3123326684        2.4034414607       -0.5059915611
