68
 energy: -115.232836430035 gnorm: 0.000055282183 xtb: 6.7.1 (edcfbbe)
C            2.69956452723856       -5.36562784509198       -0.99570296836621
C            4.04121212950714       -5.33410950348062       -0.62643029590085
C            4.65517839677653       -4.14406235746431       -0.29317356174454
C            3.92300307678914       -2.95908234333616       -0.31939914725735
C            2.56866273530979       -3.01307506852983       -0.68684202480853
C            1.95221888305946       -4.20366701698475       -1.03222875843177
S            1.79687254552904       -1.43780029786679       -0.65731092452844
C            3.30239203272513       -0.69414334160327       -0.14702967476034
C            4.35633333640150       -1.61637875129933       -0.02702042043481
C            5.64709699644524       -1.18083755488278        0.29479829269505
C            5.91335941551677        0.15934458594418        0.45580064426354
C            4.87484137401546        1.08141539030478        0.33027358757292
C            4.83421693584030        2.51786798748983        0.36373630195043
C            5.80047842465715        3.49484599284312        0.57250222551981
C            5.41789128529585        4.82095963581332        0.52954176663006
C            4.09394636681062        5.18015270218204        0.28512458813226
C            3.11509595946072        4.22574515080815        0.07727277682186
C            3.49717685326146        2.89519672659513        0.11422743313627
N            2.72104088761298        1.75275803337038       -0.02894770881441
C            1.33520364442115        1.72651872598111       -0.07351861927458
C            0.58991319980943        0.90216891313081        0.77660071630154
N           -0.72576287496905        0.91918044087864        0.76902015388635
C           -1.33986280084786        1.72720361196787       -0.09595148490627
N           -2.72255356332489        1.74092609492961       -0.09028978953807
C           -3.51554613736698        2.87723774150139       -0.21436333769199
C           -3.15375935747141        4.21457327065158       -0.28101648224854
C           -4.16362784990864        5.15647133396415       -0.36629796229181
C           -5.50563974582901        4.78583237256810       -0.37362362480069
C           -5.87315894971259        3.45919640836356       -0.26746737947203
C           -4.87413290237263        2.49800734561822       -0.17597748124741
C           -4.90349174869078        1.07180327739714       -0.00834624083635
C           -5.96143250271901        0.16829754495652        0.07681036599116
C           -5.68656072051480       -1.17011534987524        0.22577564550277
C           -4.36298985066951       -1.61888177895013        0.28187958010202
C           -3.91028620952719       -2.97964654159067        0.41384556456728
C           -4.65965259995307       -4.14921485587209        0.52630975325659
C           -4.01510413946770       -5.36327737707117        0.64525627187707
C           -2.62469532830477       -5.43409182034569        0.66030372883721
C           -1.86081365995542       -4.28813459455890        0.55084370305186
C           -2.50966495780497       -3.07089652837232        0.42247521855232
S           -1.73004300791328       -1.50878013595043        0.27030000987036
C           -3.28716273054411       -0.71328189931014        0.20029938463265
C           -3.56016142820450        0.64207767083939        0.06280059179917
C           -0.59138366016256        2.53785603103005       -0.95956519237174
N            0.72477341255151        2.54410321958583       -0.93145138146303
C            3.55336957014483        0.65247665878745        0.07349852588010
H            2.23644701974380       -6.30479059718928       -1.25845300028536
H            4.60762308197451       -6.25302315526318       -0.60386408970160
H            5.69682148856636       -4.12458669867565       -0.01200241944944
H            0.91327025093626       -4.21379565825988       -1.32447869763234
H            6.43834184989435       -1.90799460521103        0.38591789240542
H            6.91494504986717        0.50166564129096        0.66272140643656
H            6.82568722520243        3.21779556258948        0.76391070274463
H            6.15357111398815        5.59560400880227        0.68572981701041
H            3.82587946768337        6.22572763135156        0.25603734072031
H            2.09111607507725        4.50187845358788       -0.12063009524490
H            1.05683294239261        0.24628064826523        1.49749905712882
H           -2.12081433880727        4.52553190599478       -0.24739100393854
H           -3.90164502097372        6.20243184918367       -0.42177234295096
H           -6.26457096998151        5.54991767242768       -0.44725263530836
H           -6.91228862607192        3.16983897550785       -0.24460256767129
H           -6.97838402991508        0.52307844175981        0.02139612451302
H           -6.48837928369740       -1.88815806461094        0.29434865336916
H           -5.73777594221530       -4.10066443649167        0.51995020828678
H           -4.59417995972845       -6.27064054694309        0.73144085223227
H           -2.13720299148470       -6.39227803399721        0.76107700235686
H           -0.78264630410121       -4.33009129703446        0.56978803474217
H           -1.05412211192676        3.17307711917864       -1.70142523334884
