68
 energy: -115.233336846200 gnorm: 0.000043154638 xtb: 6.7.1 (edcfbbe)
C            6.84758399758940        3.43302149250799        0.27928127601243
C            7.80134077437092        2.44065755242044        0.07287637547270
C            7.43061241740345        1.11647963882452       -0.04324520006692
C            6.08474081096901        0.76722473384500        0.04369710543472
C            5.13908826463947        1.78298621109035        0.25411246614139
C            5.50618078662414        3.11261539724359        0.37182068059641
S            3.49774630036143        1.16623752619431        0.33797910654172
C            4.07766305499168       -0.46934142370541        0.06747340350625
C            5.47739940282580       -0.53651739334375       -0.04614305782591
C            6.12052521200520       -1.77098492036450       -0.18967961349236
C            5.39674982080667       -2.94080637974154       -0.18148732935737
C            4.00896773686876       -2.88303216504945       -0.06373827349667
C            2.99880105999880       -3.89991156035981        0.04306047968209
C            3.03926325595058       -5.28911075643585        0.02377627423733
C            1.85412226703950       -5.98492689377194        0.15731832336564
C            0.64062294065946       -5.31618404420902        0.30538290054199
C            0.57590358516779       -3.93501114285463        0.32623991236218
C            1.76411516682686       -3.23525264880011        0.19839686240672
N            1.97669269718672       -1.86289860971943        0.14968442007844
C            0.97601232893488       -0.90740000196759        0.08238288651116
C            0.99842133623950        0.11681295239413       -0.87202213568045
N            0.03542761761491        1.01110673670757       -0.94404090405200
C           -0.97598331011442        0.90746874408480       -0.08241145326940
N           -1.97669441787032        1.86292667404754       -0.14977515420000
C           -1.76415089124719        3.23528113359206       -0.19867476817223
C           -0.57595980077675        3.93505386511830       -0.32662912142297
C           -0.64071670978850        5.31622819289917       -0.30597553405793
C           -1.85423265954459        5.98496038812906       -0.15800040541359
C           -3.03935259861854        5.28913116592395       -0.02434136924859
C           -2.99885136561834        3.89993033274231       -0.04342142489153
C           -4.00899233922609        2.88304055479823        0.06351934618837
C           -5.39677444652113        2.94080788885227        0.18126507382472
C           -6.12052902846025        1.77097508336639        0.18962177695967
C           -5.47738033624006        0.53650095247402        0.04624980512508
C           -6.08470321737009       -0.76726293058482       -0.04339220807858
C           -7.43056636412035       -1.11652712557085        0.04364435666340
C           -7.80127406610967       -2.44073150711157       -0.07224547346275
C           -6.84750571539942       -3.43311148636053       -0.27852051629855
C           -5.50611165257668       -3.11269557054559       -0.37115957081629
C           -5.13904015164021       -1.78303970472399       -0.25368308685659
S           -3.49771249199512       -1.16627346334239       -0.33769042815390
C           -4.07764344882657        0.46933335360982       -0.06737950821313
C           -3.33683901603159        1.64209385530241       -0.01804403989942
C           -0.99836295076654       -0.11671144125617        0.87203039544711
N           -0.03538082194947       -1.01102031177552        0.94403346830068
C            3.33684053534556       -1.64208262776761        0.01798371653566
H            7.15553789460680        4.46392917536348        0.36698282726551
H            8.84400516329609        2.71217800393188        0.00349484315444
H            8.17386105984042        0.35095565439169       -0.20409697839753
H            4.75748612650186        3.87323592603807        0.53186386913394
H            7.19489743807841       -1.79474729128405       -0.27954409554301
H            5.89141248356850       -3.89649949220373       -0.25248726471848
H            3.97830597181413       -5.80720330432482       -0.09484028333973
H            1.86321956675228       -7.06453986777102        0.14732289147273
H           -0.26976760454017       -5.88762214444176        0.40787590673101
H           -0.36126883266177       -3.41532440654688        0.44885015248531
H            1.78562006432108        0.20020999099563       -1.60794579967990
H            0.36122536124635        3.41537552595818       -0.44917361883797
H            0.26965742300630        5.88767518039514       -0.40856387684496
H           -1.86335916419404        7.06457463283426       -0.14816630150841
H           -3.97840874986692        5.80721522665182        0.09420578906377
H           -5.89145256999964        3.89650211278860        0.25213847643757
H           -7.19490095744925        1.79472919004717        0.27949149641677
H           -8.17382286586374       -0.35099124986931        0.20440173073870
H           -8.84393095289292       -2.71226015118381       -0.00278244639907
H           -7.15544317167930       -4.46403945934699       -0.36604076453305
H           -4.75740845367033       -3.87332781124217       -0.53110618462523
H           -1.78552879983891       -0.20007075798324        1.60799279602708
