68
 energy: -115.153703402781 gnorm: 0.000072942014 xtb: 6.7.1 (edcfbbe)
C            2.67324133534805       -5.37209269500704       -1.02631334682010
C            4.02763112702851       -5.34253839535903       -0.70798218216712
C            4.65183515810610       -4.15625654411522       -0.37901327528566
C            3.91587437580118       -2.97306522991747       -0.35816347333629
C            2.54945180040889       -3.02404682253234       -0.67942495588968
C            1.92306437131632       -4.21022870763739       -1.01944800885157
S            1.77445531693301       -1.44845049930453       -0.59491055136424
C            3.29338439853256       -0.71208330607919       -0.13883826264771
C            4.35416555570397       -1.63479523776354       -0.05774498523576
C            5.64941764752201       -1.20039894416970        0.24516196126283
C            5.91902127418463        0.14049701116820        0.42222130391514
C            4.88161180021159        1.06305814169479        0.32338950085717
C            4.83635021695224        2.49903617922844        0.37749189378398
C            5.79832180124125        3.48112851489150        0.57160186389710
C            5.40212931944621        4.80654004890561        0.55420762641774
C            4.07102626569927        5.16017917245316        0.34460343768439
C            3.09433468108234        4.19894602776523        0.15123492785622
C            3.48891819861982        2.87133181605362        0.16534672420119
N            2.71872652092363        1.72998496892786        0.00901062703941
C            1.33728672521051        1.69906496919342       -0.04595698890448
C            0.61061067509590        0.92818390072738        0.84046283222187
N           -0.71788030837727        0.95090332810208        0.90060548587653
C           -1.35524859594267        1.76082114846418        0.00157302718971
N           -2.73424116219621        1.76568488802543       -0.00540572620097
C           -3.52429332283831        2.89311956867727       -0.18054231332959
C           -3.15878506877731        4.22986070188440       -0.23957023984957
C           -4.16291545437063        5.16952635532696       -0.39821494094893
C           -5.50114860969524        4.79197767026805       -0.48640931748405
C           -5.87481046885937        3.46427596282736       -0.39264791126622
C           -4.88385758544548        2.50496860096797       -0.22794459027176
C           -4.91194997910841        1.08068646339071       -0.05832109517795
C           -5.95780069937641        0.16333085006861       -0.02791878455514
C           -5.67228906570685       -1.17543908147709        0.12920062739949
C           -4.35026691279476       -1.61009445071231        0.26998206509583
C           -3.88895794063923       -2.96350313794224        0.42362944318630
C           -4.62645508645768       -4.14474560602280        0.49363498504876
C           -3.97042417188260       -5.34985653167707        0.63968429910123
C           -2.58191621011557       -5.40111671332151        0.72965469465347
C           -1.83103629220295       -4.24148365036064        0.67522651509998
C           -2.48934993036481       -3.03449215366875        0.51323890980216
S           -1.72476966873512       -1.45375328056228        0.45055100723145
C           -3.28047499908825       -0.68773159523548        0.26148742558656
C           -3.56330520310493        0.66257557994200        0.08844754464217
C           -0.62689592943769        2.51835031851531       -0.89546809845907
N            0.70303624315156        2.52249164486060       -0.93142395087342
C            3.55223968758635        0.63421327225509        0.08021162253773
H            2.20179362365444       -6.30847344662833       -1.28392032590347
H            4.59647217406738       -6.26016708736075       -0.72129771291492
H            5.70361834396961       -4.13875192991660       -0.13851357664710
H            0.87415296840296       -4.21904890540912       -1.27330016570766
H            6.44342090274832       -1.92699448693546        0.31370795753795
H            6.92429703898249        0.47755394705933        0.61975832485523
H            6.83136199299115        3.21323181972613        0.73072747274229
H            6.13591289981585        5.58426293696340        0.70376072737584
H            3.79490171981855        6.20379712421828        0.33489629245090
H            2.06228492161237        4.46481405372193       -0.01651959269534
H            1.11053556004419        0.34570357267566        1.60061744921164
H           -2.12780907528027        4.53552826374440       -0.14629801649093
H           -3.90187190762990        6.21580604950602       -0.44686533883056
H           -6.25612380617478        5.55287262664178       -0.61461284425084
H           -6.91347468160345        3.17565565664451       -0.43658557976461
H           -6.97616198154724        0.50205643018958       -0.13519480885018
H           -6.46793554806795       -1.90352675647026        0.13946246168043
H           -5.70364550511509       -4.11181570778172        0.43560400605943
H           -4.53981430972533       -6.26617088931927        0.68855070370149
H           -2.08615815432753       -6.35317565363455        0.84623060817258
H           -0.75514929800493       -4.26728362745038        0.75655712991920
H           -1.12277859467776        3.08348187571315       -1.67167599245373
