68
 energy: -115.153661963913 gnorm: 0.000073354109 xtb: 6.7.1 (edcfbbe)
C            2.50783839716698       -5.31237944878699       -1.10511975893605
C            3.86632422203889       -5.31571625336146       -0.80332167645269
C            4.52149348709942       -4.14624154105894       -0.47413740970900
C            3.81310418408028       -2.94680384953217       -0.43623251899720
C            2.44227205766736       -2.96477160459176       -0.74211232927534
C            1.78445689968509       -4.13391986472173       -1.08207357788299
S            1.70358911501932       -1.37356584077856       -0.63576794035268
C            3.24219146754672       -0.67584569294044       -0.18573123923490
C            4.28409886363645       -1.62112459214172       -0.12822684297854
C            5.59146708293775       -1.21620068744643        0.16356905599268
C            5.89052037503088        0.11687578306237        0.35276151569517
C            4.87070754712204        1.06146278625449        0.28002751878604
C            4.85278453451195        2.49740864554767        0.35471421307056
C            5.83557357917365        3.45896278878838        0.54688119889451
C            5.46391967291400        4.79160787676950        0.55236020122293
C            4.13659842052446        5.17260703219861        0.36810665886973
C            3.13921435469017        4.23228685866362        0.17765717902209
C            3.50928982703227        2.89758623676751        0.16848855565360
N            2.71612869785178        1.77330314631361        0.00772810940710
C            1.33354719844174        1.75820670587811       -0.02289618839584
C            0.61851702913356        0.97822250079311        0.86422179805990
N           -0.71035385658350        0.99086133860536        0.93294526073070
C           -1.35925140598694        1.79360443407846        0.03674975219469
N           -2.73797255148323        1.76023096804208        0.01309610011377
C           -3.55623716717546        2.86046891237295       -0.19996544464294
C           -3.23275797193904        4.20875924373286       -0.24208169671363
C           -4.25931270890105        5.11495082163155       -0.44521002121115
C           -5.57898575699356        4.69355687611852       -0.59387764743787
C           -5.91238029684000        3.35402933438218       -0.51766139630821
C           -4.89865014907084        2.42788554686080       -0.30897437041158
C           -4.88716807971542        1.00314857396123       -0.13989958007808
C           -5.90193144992406        0.05167632514156       -0.16626353435136
C           -5.58103237592747       -1.27704871413312        0.00786890907247
C           -4.25640856330982       -1.66606307683436        0.23080193579579
C           -3.76189727453724       -3.00302711369137        0.42423380236720
C           -4.46205171106163       -4.20836418396262        0.45004749173592
C           -3.77661306070950       -5.38990345033129        0.64687631517417
C           -2.39672279210146       -5.39332819824449        0.83156959425769
C           -1.68375390959330       -4.20870386527419        0.82334245262337
C           -2.37059223060687       -3.02578830823011        0.61013441896115
S           -1.65675902899590       -1.42004482708901        0.58907758877703
C           -3.21911325389585       -0.70857373894211        0.28173942353582
C           -3.53474862707444        0.63051404582738        0.07726346617902
C           -0.64164022053010        2.57233786720699       -0.85091678198578
N            0.68873472768104        2.59246017995256       -0.89048575131523
C            3.53062686271830        0.66157799796476        0.04970744955844
H            2.01162875913037       -6.23604730207313       -1.36198649994254
H            4.41380962078361       -6.24597640313301       -0.82908933687383
H            5.57605659980982       -4.15463801916042       -0.24568622891330
H            0.73204896787469       -4.11787383517904       -1.32067193253026
H            6.37144221759771       -1.95933946480994        0.21376025313293
H            6.90506788602531        0.43086987317278        0.54074283264669
H            6.86579691940854        3.17004994040415        0.68640216927168
H            6.21447987018296        5.55351238587380        0.70014771137047
H            3.88013039635410        6.22125509927418        0.37577518886201
H            2.10969424628513        4.51889382855552        0.02945417892292
H            1.12759134975443        0.39123395131228        1.61475176820366
H           -2.21782915667338        4.54795444588586       -0.10099420675944
H           -4.03128767607382        6.16941619574650       -0.48113411513397
H           -6.35236869877713        5.42928017998639       -0.75499269936703
H           -6.93797251701346        3.03145931257433       -0.60799772574509
H           -6.92333458569436        0.35639184484784       -0.33102662827737
H           -6.35080243483468       -2.03167181133703       -0.02740381432029
H           -5.53322795938433       -4.21297893685101        0.31825946146185
H           -4.31641499320860       -6.32512844917843        0.66087003204318
H           -1.87767333093617       -6.32750310704323        0.98525807507496
H           -0.61516241267134       -4.19771969773157        0.97532116713325
H           -1.14539129837420        3.13901806885061       -1.62081122720294
