  80
       -124.41426353
 O          2.1682119390        2.8878672094        1.5606356006
 C          2.2592333724        1.6908304971        1.2326819108
 C          1.1278313206        0.7912173720        1.2113988551
 C          1.2571100127       -0.6118977565        1.2404606983
 C          0.1527184151       -1.4173139283        1.2450282923
 C         -1.1499885186       -0.8770202693        1.1943581285
 C         -2.2832246327       -1.7746604014        1.1976692792
 O         -2.1985622490       -2.9758689938        1.5100768915
 C         -3.6053904795       -1.2400580723        0.7944315198
 C         -4.7562389035       -1.7437819102        1.4094390755
 C         -6.0044508526       -1.2931052697        1.0492625847
 C         -6.1454764315       -0.3473479843        0.0277275458
 N         -7.4079871470        0.1164750818       -0.3466216938
 C         -8.5028172219       -0.7496532469       -0.3384176516
 C         -9.7684928693       -0.2854140353        0.0278742309
 C        -10.8475866789       -1.1463317172        0.0362099724
 C        -10.6860848248       -2.4779030562       -0.3141451859
 C         -9.4318683136       -2.9445281185       -0.6760217932
 C         -8.3461135513       -2.0919139916       -0.6919075499
 C         -7.5711702693        1.4490512075       -0.7337337112
 C         -8.4513460330        1.7847444202       -1.7646349060
 C         -8.6071056986        3.1039566270       -2.1413283356
 C         -7.8901563604        4.1049910885       -1.5046597065
 C         -7.0126342302        3.7768505835       -0.4827496486
 C         -6.8516277495        2.4616118039       -0.0954701260
 C         -5.0003724925        0.1175762022       -0.6285371941
 C         -3.7529249483       -0.3271242608       -0.2545665424
 C         -1.2793613369        0.5258352337        1.2354530088
 C         -0.1752357436        1.3310329649        1.2564753943
 C          3.5860284017        1.1697543082        0.8290232330
 C          3.7466942103        0.2630355737       -0.2235487908
 C          5.0008118366       -0.1572163139       -0.6039560874
 C          6.1398538679        0.3276609457        0.0484624129
 N          7.4109490772       -0.1001969961       -0.3383151606
 C          8.4817877128        0.7963769277       -0.3258467630
 C          8.2878899136        2.1347576275       -0.6750454527
 C          9.3492520091        3.0174645499       -0.6543073216
 C         10.6152600846        2.5848474191       -0.2912377438
 C         10.8135407658        1.2571152854        0.0547316823
 C          9.7590911853        0.3661434182        0.0408911748
 C          7.6104517944       -1.4213879637       -0.7454121501
 C          6.9214923912       -2.4641821202       -0.1222739332
 C          7.1220284027       -3.7682133642       -0.5287967876
 C          8.0086510967       -4.0550256080       -1.5553011944
 C          8.6946964795       -3.0237074214       -2.1776190189
 C          8.4995646539       -1.7155552053       -1.7815365679
 C          5.9847845394        1.2633625546        1.0775015386
 C          4.7302065577        1.6889932223        1.4444777999
 H          2.2392820394       -1.0567085926        1.2972707982
 H          0.2521776295       -2.4918674338        1.2787572022
 H         -4.6412238507       -2.4752138027        2.1943829361
 H         -6.8829415550       -1.6544158082        1.5632269525
 H         -9.8914810336        0.7478543795        0.3181445279
 H        -11.8195104979       -0.7769670378        0.3268116817
 H        -11.5319740605       -3.1475891392       -0.3047305799
 H         -9.2986075477       -3.9786557460       -0.9556261310
 H         -7.3723414383       -2.4516920192       -0.9895665502
 H         -8.9973469516        1.0028451406       -2.2722003195
 H         -9.2862114423        3.3508845586       -2.9434046477
 H         -8.0136346798        5.1343951684       -1.8032911442
 H         -6.4550444721        4.5512112947        0.0221388107
 H         -6.1792363070        2.2063373215        0.7102396020
 H         -5.1047220253        0.8156564561       -1.4462785481
 H         -2.8819030278        0.0138885885       -0.7924285099
 H         -2.2618314582        0.9704720336        1.2876619263
 H         -0.2749617332        2.4052202093        1.2989194104
 H          2.8805179602       -0.0906024630       -0.7610448902
 H          5.1147727418       -0.8488210371       -1.4259190621
 H          7.3045528054        2.4679789430       -0.9722310376
 H          9.1876343800        4.0483186632       -0.9310438821
 H         11.4419262686        3.2780669137       -0.2774295536
 H         11.7948328095        0.9143952796        0.3464375983
 H          9.9101738100       -0.6644728121        0.3273898100
 H          6.2421429997       -2.2410618745        0.6871510112
 H          6.5884858259       -4.5664316635       -0.0351760102
 H          8.1631903210       -5.0758285383       -1.8686643044
 H          9.3804577008       -3.2382826262       -2.9833305148
 H          9.0214565986       -0.9102083371       -2.2776883442
 H          6.8584151165        1.6380868388        1.5901353251
 H          4.6042825946        2.4136676855        2.2340128425
