  42
  -63.8521954300000       0.500193120549908      !
 C          5.0617532115        0.7878379091        0.6155864831
 C          3.9645101375        1.0241573843        1.4288728612
 C          2.7663582547        0.3820785702        1.1847987540
 C          2.6465126428       -0.5064283413        0.1174619424
 C          1.3882845697       -1.2474838166       -0.0861489715
 C          1.4916378360       -2.6502343493       -0.0803796532
 C          0.3848086652       -3.4459084454       -0.1359989460
 C         -0.9020934518       -2.8732654393       -0.1029879376
 C         -2.0565853450       -3.6782709995       -0.0732281744
 C         -3.2962030812       -3.1040896834       -0.0028429880
 C         -3.4234451082       -1.7177408220        0.0822788748
 C         -2.3185756473       -0.8847526613        0.0634408429
 C         -2.4372495654        0.5608710455        0.2007093495
 C         -3.6127900594        1.1807504342        0.5859096496
 C         -3.7255528908        2.5712777086        0.6161312965
 C         -2.6794552666        3.3589485931        0.2198098621
 C         -1.4563214320        2.7761366938       -0.1665085718
 C         -0.3813816340        3.5648366536       -0.6223250073
 C          0.7739296056        2.9698680980       -1.0499500546
 C          0.9407077728        1.5885931888       -0.9421699893
 C         -0.0497898770        0.7824950196       -0.4094080532
 C          0.1346748689       -0.6462386275       -0.1857143597
 C         -1.0274138658       -1.4597294566       -0.0856910679
 C         -1.3112516508        1.3649392082       -0.1145431183
 C          3.7589657201       -0.7523170423       -0.6822363406
 C          4.9556573460       -0.1020793296       -0.4391919180
 H          5.9966728903        1.2935447780        0.8060500622
 H          4.0458668171        1.7098259922        2.2594778099
 H          1.9110510021        0.5637674755        1.8193174680
 H          2.4769407197       -3.0905101714       -0.0240548592
 H          0.4782330385       -4.5217666670       -0.1662731850
 H         -1.9430258530       -4.7521585011       -0.1038995703
 H         -4.1847047772       -3.7184372509        0.0054056369
 H         -4.4156478884       -1.3020502425        0.1578823692
 H         -4.4709606895        0.5941942612        0.8734974227
 H         -4.6572031676        3.0185098447        0.9310854638
 H         -2.7746987559        4.4348040742        0.1944833581
 H         -0.4991479989        4.6382462834       -0.6551670039
 H          1.5783912541        3.5653356364       -1.4563513965
 H          1.8641061739        1.1552882756       -1.2880809782
 H          3.6751001017       -1.4397266917       -1.5122356042
 H          5.8083065489       -0.2929502837       -1.0746302185
  42
  -63.8521947000000       0.499806879450092      !
 C          5.0745456565        0.7523304017       -0.4501585792
 C          4.9308666258       -0.0505510353        0.6680564030
 C          3.7268911803       -0.6840846134        0.9194858409
 C          2.6442737801       -0.5080121380        0.0626845395
 C          1.3794192302       -1.2347424160        0.2740246947
 C          1.4795000631       -2.6324814966        0.3953919388
 C          0.3689109360       -3.4225424452        0.4581892008
 C         -0.9126632792       -2.8581514728        0.3012423051
 C         -2.0655578801       -3.6652176983        0.2675756897
 C         -3.2968137355       -3.1014329604        0.0728183566
 C         -3.4150307939       -1.7270294789       -0.1334834054
 C         -2.3110721461       -0.8927009116       -0.1145644344
 C         -2.4162366307        0.5368164226       -0.3765716829
 C         -3.5635254665        1.1217211007       -0.8824665999
 C         -3.6691914842        2.5052296510       -1.0316966893
 C         -2.6473770918        3.3241649152       -0.6354016724
 C         -1.4520303821        2.7764709015       -0.1291029865
 C         -0.4036126909        3.6003641961        0.3261100896
 C          0.7229000208        3.0431949232        0.8668537756
 C          0.8917468861        1.6581455430        0.8785143812
 C         -0.0688912696        0.8111272647        0.3544210395
 C          0.1234563225       -0.6303579476        0.2570567263
 C         -1.0332050186       -1.4512813581        0.1590789526
 C         -1.3088690318        1.3659145679       -0.0594483312
 C          2.8021061892        0.2929874243       -1.0673050328
 C          4.0073289561        0.9184093783       -1.3189115731
 H          6.0153795861        1.2445510234       -0.6467630196
 H          5.7601495156       -0.1855028823        1.3473165150
 H          3.6136472923       -1.3022338022        1.7990478911
 H          2.4651459577       -3.0740759756        0.4310824182
 H          0.4576560776       -4.4915726777        0.5863699603
 H         -1.9575835406       -4.7327160864        0.3936607887
 H         -4.1846524149       -3.7167049056        0.0595895028
 H         -4.3994394493       -1.3213172008       -0.3047410943
 H         -4.4044565241        0.5125695656       -1.1739109220
 H         -4.5779161877        2.9241595643       -1.4389922814
 H         -2.7409358965        4.3983768843       -0.7022123353
 H         -0.5199335120        4.6728211444        0.2671800330
 H          1.5034954010        3.6703590582        1.2721800312
 H          1.7919729296        1.2544553936        1.3107879879
 H          1.9707003053        0.4189569538       -1.7455775566
 H          4.1177706851        1.5356588947       -2.1984993235
