  42
  -63.5977180468000        1.00000000000000      !
 C          5.0617532115        0.7878379091        0.6155864831
 C          3.9645101375        1.0241573843        1.4288728612
 C          2.7663582547        0.3820785702        1.1847987540
 C          2.6465126428       -0.5064283413        0.1174619424
 C          1.3882845697       -1.2474838166       -0.0861489715
 C          1.4916378360       -2.6502343493       -0.0803796532
 C          0.3848086652       -3.4459084454       -0.1359989460
 C         -0.9020934518       -2.8732654393       -0.1029879376
 C         -2.0565853450       -3.6782709995       -0.0732281744
 C         -3.2962030812       -3.1040896834       -0.0028429880
 C         -3.4234451082       -1.7177408220        0.0822788748
 C         -2.3185756473       -0.8847526613        0.0634408429
 C         -2.4372495654        0.5608710455        0.2007093495
 C         -3.6127900594        1.1807504342        0.5859096496
 C         -3.7255528908        2.5712777086        0.6161312965
 C         -2.6794552666        3.3589485931        0.2198098621
 C         -1.4563214320        2.7761366938       -0.1665085718
 C         -0.3813816340        3.5648366536       -0.6223250073
 C          0.7739296056        2.9698680980       -1.0499500546
 C          0.9407077728        1.5885931888       -0.9421699893
 C         -0.0497898770        0.7824950196       -0.4094080532
 C          0.1346748689       -0.6462386275       -0.1857143597
 C         -1.0274138658       -1.4597294566       -0.0856910679
 C         -1.3112516508        1.3649392082       -0.1145431183
 C          3.7589657201       -0.7523170423       -0.6822363406
 C          4.9556573460       -0.1020793296       -0.4391919180
 H          5.9966728903        1.2935447780        0.8060500622
 H          4.0458668171        1.7098259922        2.2594778099
 H          1.9110510021        0.5637674755        1.8193174680
 H          2.4769407197       -3.0905101714       -0.0240548592
 H          0.4782330385       -4.5217666670       -0.1662731850
 H         -1.9430258530       -4.7521585011       -0.1038995703
 H         -4.1847047772       -3.7184372509        0.0054056369
 H         -4.4156478884       -1.3020502425        0.1578823692
 H         -4.4709606895        0.5941942612        0.8734974227
 H         -4.6572031676        3.0185098447        0.9310854638
 H         -2.7746987559        4.4348040742        0.1944833581
 H         -0.4991479989        4.6382462834       -0.6551670039
 H          1.5783912541        3.5653356364       -1.4563513965
 H          1.8641061739        1.1552882756       -1.2880809782
 H          3.6751001017       -1.4397266917       -1.5122356042
 H          5.8083065489       -0.2929502837       -1.0746302185
