76
 energy: -115.198575350182 gnorm: 0.000087259545 xtb: 6.7.1 (edcfbbe)
C           -5.21869950656563        2.59351574000765        1.56065668330314
C           -5.62895616458643        1.84570125288698        0.46799857869256
C           -4.82038650695543        0.85165154418783       -0.04501179148167
C           -3.57979500610547        0.58289477474991        0.53700052081923
N           -2.74192870289906       -0.39822879529633        0.00341881057239
C           -3.26723467181649       -1.57776342430486       -0.52776847759063
C           -2.67174204707147       -2.18202236314369       -1.63763662591120
C           -3.16860717421782       -3.36881191825568       -2.13553809101171
C           -4.26856692727192       -3.97260628623274       -1.54682816283579
C           -4.87096032790169       -3.37243508477866       -0.45213652085311
C           -4.37751057635508       -2.18889801892961        0.05860161433507
C           -1.35767428434715       -0.19692476266697        0.00119728237981
C           -0.82917896742573        1.08169189439572       -0.20620357263546
C            0.54677355123536        1.29065277629832       -0.14113098302554
C            1.44502800446437        0.21061185219293       -0.00328490191739
C            0.89199412400576       -1.08045260026082        0.13684658570063
C           -0.48628744348615       -1.27196659624174        0.20633448709708
N            1.73863558104312       -2.17543297590281        0.23594776390994
C            1.12254011256870       -3.45564865186368        0.23083999697639
C            1.03110956020606       -4.20591893613151        1.39942882925607
C            0.39297952784299       -5.43194342681656        1.38159423795465
C           -0.15987365308085       -5.91532124756910        0.20602097926361
C           -0.06783735465463       -5.16922479160000       -0.95843059249214
C            0.57079957794848       -3.94407154939685       -0.94984836912683
C            3.11619696610669       -2.08625471631504        0.36443397127443
C            3.85784289894412       -3.26286013214568        0.50111660452330
C            5.22250881587284       -3.21739107501346        0.73228278307262
C            5.85534161317294       -1.98681803905878        0.85029744525291
C            5.13864252317460       -0.82333640620800        0.65669424502105
C            3.76944926650253       -0.81852567700536        0.34339325948883
B            2.94101074904255        0.42810457157331       -0.00575743318692
C            3.37896881978399        1.85884535017889       -0.35716735839611
C            4.68897692249224        2.25316476466336       -0.67528116691939
C            5.04398704040660        3.57245891432841       -0.87094381498521
C            4.08734981224319        4.57195447589263       -0.75018886775803
C            2.76707926550567        4.22707227409461       -0.51419915534658
C            2.39166796427924        2.88804284769415       -0.37550774799455
N            1.04621216504853        2.58131146021028       -0.24249452464143
C            0.09106267456217        3.63305243551893       -0.23564117478076
C           -0.21343621140066        4.32511404073107       -1.40405181452986
C           -1.17402841207176        5.31885668529125       -1.38448049118186
C           -1.83828922663591        5.62602575383747       -0.20733138969945
C           -1.53448783362384        4.93805821436895        0.95691056020605
C           -0.57357104358800        3.94534087026400        0.94660579553376
C           -3.17727763651017        1.33265412143631        1.64488142031199
C           -3.99007958269472        2.32886436831060        2.14504132283118
H           -5.85211189573921        3.37370162527813        1.95429983144378
H           -6.58415426730985        2.04568436498376        0.00495519194316
H           -5.13650501132657        0.28050839301995       -0.90568014506773
H           -1.82284733010571       -1.70619519499845       -2.10603181422015
H           -2.70026098728603       -3.82169160334344       -2.99712004459553
H           -4.65474393905107       -4.90110543707089       -1.93876948934663
H           -5.72773692243588       -3.83633256202375        0.01427558204485
H           -4.84012007162079       -1.73131144716313        0.92086162004110
H           -1.51027638440486        1.89622500030998       -0.39681213756965
H           -0.90661039776742       -2.24666319107996        0.39863573506465
H            1.45791409798145       -3.81727992918299        2.31229220287624
H            0.32066475394683       -6.00986997986300        2.29088340043391
H           -0.66175068513466       -6.87076345447337        0.19771102803009
H           -0.49520763214849       -5.54431531894029       -1.87591329422562
H            0.64706936961077       -3.35354400366439       -1.85069760235523
H            3.37179800246590       -4.22430802073962        0.43321249047052
H            5.77939479310328       -4.13640484264149        0.83550100089334
H            6.91217967613996       -1.94292013429551        1.07272373472759
H            5.64391212699169        0.12402369962286        0.75695831685843
H            5.44277060487471        1.48886151526777       -0.77766097263001
H            6.06876744699800        3.83119261727848       -1.09721152083584
H            4.35911654544521        5.61143869741780       -0.85498593847471
H            2.02762782063912        5.01035360850424       -0.44407889463932
H            0.30377500009825        4.07312728995378       -2.31812032010328
H           -1.41054747579483        5.85126653616660       -2.29367719959630
H           -2.59143863475050        6.39900855948458       -0.19769092459272
H           -2.04834634549984        5.17691314121786        1.87561676424946
H           -0.32974952624248        3.40193767944407        1.84734799631702
H           -2.22626844541582        1.11893206100749        2.10999716257459
H           -3.66709789132042        2.89717155824940        3.00497226823257
