  76
       -115.19615989
 C         -4.6442781783        3.5246367116        1.5363602818
 C         -5.1790636449        2.8671296045        0.4392560423
 C         -4.5684346252        1.7378537048       -0.0670878473
 C         -3.4053872753        1.2409195051        0.5253476721
 N         -2.7629443788        0.1203467140       -0.0046369586
 C         -3.5011516339       -0.9406233380       -0.5325762589
 C         -3.0359048474       -1.6442038000       -1.6465659349
 C         -3.7500692354       -2.7155450533       -2.1415247524
 C         -4.9394672274       -3.1039453611       -1.5448465024
 C         -5.4120255928       -2.4030634457       -0.4462549414
 C         -4.7025900380       -1.3334124507        0.0609825615
 C         -1.3664222303        0.0596024384       -0.0048119257
 C         -0.6075269617        1.2192948099       -0.1980171408
 C          0.7820260504        1.1662606163       -0.1313611076
 C          1.4628844709       -0.0646738466       -0.0052179879
 C          0.6769506283       -1.2312012721        0.1226457707
 C         -0.7118224028       -1.1617314602        0.1893842377
 N          1.3037673007       -2.4662840798        0.2136815481
 C          0.4579536841       -3.6074822015        0.2067045726
 C          0.2290136077       -4.3292072855        1.3746575747
 C         -0.6325626952       -5.4097387702        1.3583906924
 C         -1.2724067861       -5.7762999666        0.1845614640
 C         -1.0423892855       -5.0599922842       -0.9796461603
 C         -0.1812116446       -3.9798788843       -0.9725204872
 C          2.6728547267       -2.6371046013        0.3386959156
 C          3.1809472932       -3.9337906188        0.4614291557
 C          4.5291986280       -4.1474177865        0.6921416796
 C          5.3816156015       -3.0585179888        0.8219382044
 C          4.8963096513       -1.7793659172        0.6394684426
 C          3.5524831734       -1.5144011142        0.3286265371
 B          2.9723537902       -0.1309198237       -0.0063042828
 C          3.6712023434        1.1967445339       -0.3402118845
 C          5.0327478279        1.3436395791       -0.6522427102
 C          5.6289503655        2.5759437039       -0.8283811150
 C          4.8759262857        3.7349564461       -0.6921713209
 C          3.5139173676        3.6398056476       -0.4623691079
 C          2.8935293027        2.3925677328       -0.3449364133
 N          1.5148758227        2.3420323842       -0.2181938689
 C          0.7733189218        3.5534700946       -0.1994940460
 C          0.6050316013        4.3024577361       -1.3605239169
 C         -0.1554630476        5.4562318404       -1.3312059790
 C         -0.7533802890        5.8698780305       -0.1510807670
 C         -0.5837372319        5.1260438981        1.0063172379
 C          0.1756324346        3.9722949436        0.9859553128
 C         -2.8782778745        1.9011850516        1.6380907596
 C         -3.4934334336        3.0326324750        2.1322924642
 H         -5.1222195951        4.4107011381        1.9253046197
 H         -6.0749237468        3.2439764225       -0.0320290245
 H         -4.9773874479        1.2363782862       -0.9320982985
 H         -2.1148364887       -1.3357075224       -2.1184317591
 H         -3.3797698351       -3.2474555861       -3.0052555985
 H         -5.4926521058       -3.9456760662       -1.9324037272
 H         -6.3350232460       -2.7023993055        0.0288027574
 H         -5.0626688241       -0.8017833721        0.9298407359
 H         -1.1236451330        2.1487089043       -0.3804049468
 H         -1.3077598834       -2.0416670248        0.3736327299
 H          0.7255778780       -4.0310143104        2.2862792136
 H         -0.8109884722       -5.9637692881        2.2678409689
 H         -1.9484516179       -6.6174155987        0.1772046490
 H         -1.5363024482       -5.3451646319       -1.8961324536
 H          0.0033560848       -3.4137615767       -1.8733504757
 H          2.5221350405       -4.7853225051        0.3831161070
 H          4.9041078205       -5.1553924679        0.7858814881
 H          6.4275353223       -3.2157063905        1.0448522772
 H          5.5707056156       -0.9450976448        0.7487838027
 H          5.6307909179        0.4537036567       -0.7666399236
 H          6.6845607383        2.6414279858       -1.0512160990
 H          5.3381586440        4.7063375936       -0.7823291050
 H          2.9329298018        4.5459516664       -0.3810240906
 H          1.0682692754        3.9679165615       -2.2770566976
 H         -0.2865070690        6.0320872360       -2.2350575691
 H         -1.3497220193        6.7692028780       -0.1330140195
 H         -1.0448011588        5.4478686335        1.9277696383
 H          0.3138057836        3.3847441889        1.8815090512
 H         -1.9895420117        1.5110683730        2.1116065439
 H         -3.0786884358        3.5292068403        2.9972559179
