76
 energy: -115.288968222460 gnorm: 0.000043876222 xtb: 6.7.1 (edcfbbe)
C           -5.24475148465039        2.61755604476249        1.44590632662318
C           -5.62450790834508        1.84981285346033        0.35746086033809
C           -4.79646677287114        0.85255690567493       -0.11981996113062
C           -3.57035521960816        0.60155566915954        0.49551576402710
N           -2.72101546473756       -0.39442667720343        0.00215445813428
C           -3.25395771706749       -1.59272162700208       -0.48470389361315
C           -2.69026204028806       -2.22216291732386       -1.59502363455167
C           -3.20142017120187       -3.42054914283979       -2.05133590937390
C           -4.28830314820668       -4.00544974182348       -1.42242262975706
C           -4.86258038561564       -3.37731133063084       -0.32971306509777
C           -4.35111934429803       -2.18376281912531        0.14125719448450
C           -1.33678072362873       -0.19359350466223       -0.00103004261036
C           -0.82387133026385        1.08557175514863       -0.18172329629086
C            0.55132141526229        1.29552636817285       -0.13683235353229
C            1.44187256275489        0.21022771839625       -0.00354094363283
C            0.89730931630761       -1.08370938449027        0.12986829946527
C           -0.48066080676074       -1.27396850414624        0.17706954470607
N            1.74227787544640       -2.16932669225217        0.22790694230054
C            1.13088232094891       -3.45585482648145        0.17145341929491
C            0.88372296026231       -4.17548653492282        1.33394688325213
C            0.24706575726630       -5.40153330318552        1.26139318001448
C           -0.14954476055923       -5.90891324882450        0.03512090412053
C            0.09785556336280       -5.19203341780046       -1.12334789691354
C            0.73855339810595       -3.96795106738823       -1.05854509813458
C            3.11274411435093       -2.07325507012302        0.39319097494564
C            3.85198568820263       -3.24784547133452        0.59115890025772
C            5.20262239689998       -3.19519969784048        0.84603974674450
C            5.84780189039453       -1.96758541716129        0.92579880782173
C            5.13527804676899       -0.81526696746772        0.68129016970811
C            3.77075255461527       -0.82131008400940        0.36612016970300
B            2.93997874205431        0.42797146986272       -0.00327286317445
C            3.38091805899788        1.86217332855801       -0.37193442616620
C            4.69101083380193        2.24514676488109       -0.68546983570379
C            5.04606952482756        3.55274333981163       -0.92922338195457
C            4.07782382285979        4.54569583975488       -0.85037059420234
C            2.76783561549531        4.21135016610237       -0.59723082064032
C            2.39356196567023        2.87478972855604       -0.39999080353313
N            1.05230737689522        2.57665221020581       -0.23604139521043
C            0.09986052903209        3.63609264030471       -0.18437501909141
C           -0.33995992290074        4.25134218403650       -1.34986881244393
C           -1.29919395571302        5.24587781994647       -1.28258668206399
C           -1.82570931608380        5.62400431907177       -0.05854030048472
C           -1.38643162440793        5.01143484389252        1.10291689590813
C           -0.42382540722079        4.01998929367566        1.04338868994872
C           -3.20109663142427        1.36740064977216        1.60183351694671
C           -4.03025086508763        2.36951498350931        2.06429743231572
H           -5.89136272141349        3.40109217814061        1.81088021366216
H           -6.56956204527581        2.03547689711533       -0.13175105316789
H           -5.08967232892007        0.26403773025880       -0.97700337298450
H           -1.84948606182986       -1.76321068627509       -2.09356727586969
H           -2.75339023805616       -3.89679198772256       -2.91109789297508
H           -4.68632701150882       -4.94202289479962       -1.78249165355778
H           -5.71019802996959       -3.82558687425483        0.16780145675122
H           -4.79304323188870       -1.70278670396872        1.00175433500973
H           -1.50549676687289        1.90326319733972       -0.35266751757999
H           -0.90084477026268       -2.25188621492448        0.34904483195268
H            1.19001153147356       -3.76629200952101        2.28548044938267
H            0.05425178101966       -5.95924455084838        2.16579644675282
H           -0.65268224362077       -6.86265645231295       -0.01685286164308
H           -0.20960965807110       -5.58691549961949       -2.07996740902201
H            0.93272334341084       -3.39659084416883       -1.95415454159031
H            3.35921094209060       -4.20801672895138        0.55376571840013
H            5.75352723994714       -4.11178518694728        1.00083603699459
H            6.89975783403776       -1.92192942608974        1.16690313441985
H            5.64107115892765        0.13472537022310        0.75529484032786
H            5.44650956645068        1.47857798320938       -0.75884653742058
H            6.06773003675472        3.80873093116979       -1.16903180835701
H            4.34503007139457        5.58128958120062       -1.00442966728781
H            2.02193057647876        4.99137449329823       -0.56048986994705
H            0.07171127476875        3.94268542914327       -2.29956570224166
H           -1.64120358251215        5.72233377721608       -2.18933093064715
H           -2.57948072885958        6.39537052666607       -0.01061458964991
H           -1.79513799370730        5.30607175749819        2.05776651208821
H           -0.07658815641358        3.53091129316943        1.94144171467638
H           -2.25986888779742        1.16921130995745        2.09262790111617
H           -3.72988604410033        2.95516819082021        2.92076214229590
