76
 energy: -115.198575218460 gnorm: 0.000096057295 xtb: 6.7.1 (edcfbbe)
C           -4.64586395336732        3.51756801523760        1.56789647667702
C           -5.18476679257232        2.86520617127429        0.46996215051940
C           -4.57486599451406        1.73967278314984       -0.04607877189391
C           -3.40890185702231        1.24029662459040        0.53807087298035
N           -2.76766024179048        0.12217355986995        0.00139014503665
C           -3.50293994902083       -0.93515258753956       -0.53803423122430
C           -3.02797173859369       -1.63395476162950       -1.65053123024968
C           -3.73692847746452       -2.70378250700005       -2.15661246720998
C           -4.93228195034411       -3.09410943995654       -1.57364706806825
C           -5.41475457794845       -2.39795327158087       -0.47635576163592
C           -4.70977370267751       -1.33079632612505        0.04256457551294
C           -1.37016723588713        0.06088268258843        0.00268065588661
C           -0.61095768251668        1.21904193692446       -0.19590904997000
C            0.77968013692112        1.16589569186621       -0.12889256310970
C            1.45927550280311       -0.06426107017074        0.00226448977377
C            0.67381928317708       -1.22953597409004        0.13449587289551
C           -0.71603229057818       -1.15965304986853        0.20197965674545
N            1.29997139061320       -2.46435846484491        0.22744326794644
C            0.45536837110655       -3.60668245717033        0.21260123454197
C            0.22358570613199       -4.33558939444661        1.37530906294576
C           -0.63030912344069       -5.42220225206042        1.34730949469874
C           -1.26008481174377       -5.78626839446332        0.16742640753427
C           -1.02917427067554       -5.06109294696405       -0.99095960573389
C           -0.17485368935264       -3.97540106737752       -0.97222938847419
C            2.66970192860992       -2.63579434991067        0.35683435713263
C            3.17748826790513       -3.93123119467184        0.48756305997534
C            4.52624523630911       -4.14361946397198        0.71905039453018
C            5.37854526319101       -3.05417227314849        0.84304366916072
C            4.89287590137655       -1.77599919220419        0.65543586429190
C            3.54908080940969       -1.51294299089487        0.34251392660544
B            2.96946320736526       -0.13119319977494        0.00046422813366
C            3.66813803395342        1.19387189745725       -0.34350682524600
C            5.02890391172825        1.33696685386760       -0.66080093167056
C            5.62533974770901        2.56720880189940       -0.84952253632841
C            4.87338627109069        3.72782180673977       -0.72209873444800
C            3.51184523350669        3.63566100097950       -0.48646269662829
C            2.89160715788916        2.39021322894922       -0.35493036388213
N            1.51242898731579        2.34062188236630       -0.22207284251557
C            0.77195408115035        3.55298135889261       -0.20519437470465
C            0.60365659407698        4.30045475978537       -1.36706967540688
C           -0.15169421812866        5.45767434510809       -1.33724128273719
C           -0.74575521176871        5.87458663757278       -0.15631174676747
C           -0.57778079841323        5.13109150520862        1.00130177298765
C            0.17798155487353        3.97465924236479        0.98072328843593
C           -2.87737129981982        1.89587866736345        1.65129426724806
C           -3.49098324437789        3.02438120874386        2.15450023938231
H           -5.12325339434996        4.40083681625693        1.96386243867689
H           -6.08362187274330        3.24306074391226        0.00510319451313
H           -4.98905168440693        1.24205406930502       -0.91078689524082
H           -2.10364501914168       -1.32288693231761       -2.11450445391277
H           -3.35921837201521       -3.23148631904093       -3.02010756722604
H           -5.48442175809021       -3.93155147203593       -1.97200455948129
H           -6.34462651886111       -2.69577195277002       -0.01434302700497
H           -5.08102494659612       -0.79945019836767        0.90670209105000
H           -1.12676394077140        2.14810951465622       -0.38167923864556
H           -1.31186357107594       -2.03950661634951        0.38793452445061
H            0.71293943714949       -4.03965706470974        2.29154684279933
H           -0.81026417532865       -5.98372214884105        2.25193342302124
H           -1.92971426204364       -6.63253291131327        0.15107777749522
H           -1.51652207214661       -5.34363258564063       -1.91171807342463
H            0.01157222042606       -3.40254323394807       -1.86841298408569
H            2.52007425163513       -4.78427370941222        0.41467433153157
H            4.90071618635867       -5.15126899804949        0.81784031934932
H            6.42467506689326       -3.21035893286922        1.06557720403352
H            5.56678733197799       -0.94070853645875        0.76012146057688
H            5.62577650648794        0.44529804828991       -0.76808388568817
H            6.68045629802605        2.63019822893611       -1.07552228695478
H            5.33543982562207        4.69837903105203       -0.82151255229994
H            2.93281120626002        4.54353731808016       -0.41106288269897
H            1.06402714716603        3.96347492382145       -2.28415581088583
H           -0.28292241898534        6.03346066494663       -2.24128011507257
H           -1.33875188175164        6.77618327129023       -0.13856917870876
H           -1.03725843954094        5.45461791559756        1.92290559763256
H            0.31453716482459        3.38694648705224        1.87628368422072
H           -1.98511403136631        1.50538721834546        2.11799972598579
H           -3.07065756239094        3.51786821530957        3.01853818119303
