64
 energy: -98.678034732438 gnorm: 0.000051386861 xtb: 6.7.1 (edcfbbe)
C            7.38402322199975       -2.98414138864442       -1.79095556249324
C            6.12005803528684       -3.35924420733546       -1.34022986772650
C            5.27747596238823       -2.45662219126806       -0.72068063447103
C            5.72632939896013       -1.15270780207382       -0.56540164560406
C            7.01635944130248       -0.76831114840419       -0.99934364809677
C            7.84479297591966       -1.69429557596484       -1.61968068480153
C            7.16944696876496        0.61501845116449       -0.64675879200391
C            8.19190804320020        1.53886017974742       -0.81903849408434
C            8.00128990835361        2.82891997643918       -0.36644603677726
C            6.80460205947875        3.20648528750060        0.23930876580482
C            5.77300379509137        2.30605777347555        0.42222302670429
C            5.96687516245875        1.00212435835908       -0.01126369398653
N            5.10454874162122       -0.07406187111437        0.02922117788529
C            3.81754671069152       -0.07058125210560        0.58699857897213
C            3.61559088500122        0.38679010175227        1.88642192726764
C            2.34808383652916        0.40553322836394        2.42709809608152
C            1.24681397567433       -0.03828191306768        1.69013936916035
N           -0.00028826763043       -0.02648092701577        2.28725069527408
C           -1.24719981284536       -0.00256136591056        1.69016769476849
C           -2.35058284281870       -0.44806340561014        2.42298585080385
C           -3.61827348080908       -0.41663358436198        1.88332812368565
C           -3.81838338529178        0.05514418643726        0.58875623426970
N           -5.10567693968389        0.07322003651325        0.03198527035948
C           -5.71843144243520        1.16146746217770       -0.55453422922269
C           -5.25975564526222        2.46333013408352       -0.69801912714626
C           -6.09448446770461        3.37730265219848       -1.31152019209301
C           -7.36035650813166        3.01538409049533       -1.76763778328269
C           -7.83107784480118        1.72769184063713       -1.60764646095273
C           -7.01065702882653        0.79048773771695       -0.99353809176338
C           -7.17475850267479       -0.59448619335099       -0.65261685742695
C           -8.20416619500815       -1.50883473123646       -0.83382546401671
C           -8.02423234161978       -2.80402832651944       -0.39165385117870
C           -6.83127798548059       -3.19586815795997        0.21237543814574
C           -5.79291785152613       -2.30505933880526        0.40401648646186
C           -5.97602876471328       -0.99608459520699       -0.01881751680932
C           -2.72690806939469        0.52107914949772       -0.13818962701354
C           -1.45999172543247        0.50641987350554        0.40775093160969
C            1.46182566232560       -0.53394306275613        0.40286087729707
C            2.72850919187475       -0.53614692205597       -0.14383729619943
H            8.01162812357268       -3.71905937380964       -2.27288498778136
H            5.79285288417394       -4.37980108238907       -1.47537734223716
H            4.30636977971802       -2.76049973080381       -0.35957546691562
H            8.82990403495475       -1.40724815678296       -1.95559764490233
H            9.11370250261271        1.25007639235376       -1.30130581779055
H            8.78466557826831        3.56215505649486       -0.48873448804664
H            6.67957098815184        4.22712677076762        0.57026117257622
H            4.84281900620473        2.61096000336339        0.87797993887706
H            4.45999567742608        0.71901521337286        2.47137248884596
H            2.20058039259516        0.76046884204359        3.43742963006613
H           -0.00042242375136       -0.03047016345911        3.29666939274305
H           -2.20455163096134       -0.81396068874970        3.42961239365974
H           -4.46420660177253       -0.74962645251383        2.46561844121730
H           -4.28716024191988        2.75710854215766       -0.33259100703644
H           -5.75947857360635        4.39648910413102       -1.43751538975498
H           -7.98150823339843        3.75887868988780       -2.24475384679609
H           -8.81770029865746        1.45074695222900       -1.94758876259179
H           -9.12303162221347       -1.20884049780623       -1.31483610321409
H           -8.81316634437690       -3.53007441567377       -0.52090595265839
H           -6.71462368141960       -4.22013477852687        0.53508347159333
H           -4.86575867841554       -2.62113612119605        0.85830790939554
H           -2.87654554181582        0.89730708265923       -1.13901775743287
H           -0.63292375513118        0.91062124032191       -0.15411338244015
H            0.63661604127784       -0.93733684804466       -0.16232719529423
H            2.87987845142116       -0.90191593218797       -1.14828145831922
