64
 energy: -98.577961241175 gnorm: 0.000095099073 xtb: 6.7.1 (edcfbbe)
C            8.83316498737460        1.36835799658393       -1.06333774794295
C            7.76100060371660        2.22525699613923       -1.30983945650082
C            6.46615930993434        1.87459447404535       -0.96435117905363
C            6.26393169316522        0.64704549302812       -0.35493923535709
C            7.34388783306045       -0.24929048358902       -0.14094292829969
C            8.63626753080690        0.12795694418584       -0.49050909317208
C            6.78412747376928       -1.44174529633572        0.41574789414106
C            7.33096223130786       -2.64784264260488        0.84150687242594
C            6.49248537723165       -3.60198878423885        1.38206180258750
C            5.12550751980552       -3.36373308160746        1.52055015071571
C            4.55707138062544       -2.17302442118238        1.09863887698921
C            5.38587428879291       -1.22349440613542        0.52382712856127
N            5.08382246336423        0.04628423557578        0.05569291603809
C            3.82262085532153        0.60906082615427        0.01127527020121
C            2.71517965862550       -0.13760477087941       -0.45519569966948
C            1.46451089545523        0.40397904394872       -0.48933343070224
C            1.23736166230256        1.72798270503134       -0.03227755548250
N            0.00095656632484        2.31034436918636       -0.01824296467427
C           -1.23471482292943        1.72663593869273       -0.00243849248149
C           -2.35958359236671        2.49341020749282       -0.40428317596974
C           -3.61072813827709        1.95317831909373       -0.42049595680300
C           -3.82081173899597        0.60911509640443       -0.03035253617089
N           -5.08361764877959        0.04877711710755       -0.06164740161221
C           -5.39392608061868       -1.21873605010669       -0.53020538513626
C           -4.57483263879161       -2.16627536571583       -1.12199445332389
C           -5.15071459361007       -3.35468262824684       -1.54023700497882
C           -6.51551972832989       -3.59266192158255       -1.38131084616481
C           -7.34474929563055       -2.64039391403995       -0.82342036756186
C           -6.79044442794145       -1.43649250449908       -0.40114596609408
C           -7.34048606191496       -0.24592504164225        0.16922860763896
C           -8.62685799378978        0.13062501111178        0.54099032149094
C           -8.81380461308960        1.36893766582223        1.12164286019316
C           -7.73736756794890        2.22440629322162        1.35392376745457
C           -6.44841164381232        1.87433005907141        0.98651335420085
C           -6.25668168807115        0.64884153286925        0.36963663410631
C           -2.70970894734201       -0.14107903490547        0.42108323158855
C           -1.45851697748499        0.39985257348173        0.44789023704428
C            2.35958093963351        2.49297236276360        0.38047761492594
C            3.61016051400513        1.95194170211858        0.40477849448626
H            9.82976969510026        1.67889203697374       -1.34069882095617
H            7.94156243147623        3.17770677269400       -1.78511247928046
H            5.64229984571633        2.53540925580108       -1.18686919103952
H            9.46441619469107       -0.54363047734569       -0.32159170694092
H            8.39214609057811       -2.82595352660049        0.75466556221586
H            6.89896660534442       -4.54487738301451        1.71719368850617
H            4.49834430469110       -4.11864958536551        1.97036160302905
H            3.50195360111029       -1.99072198202068        1.23432471439282
H            2.88716646034243       -1.12765908470561       -0.84920687707202
H            0.64692982605460       -0.14725531149636       -0.92599786844112
H            0.00035452243184        3.32415723653720       -0.01582187738005
H           -2.20360327412436        3.51182503056976       -0.73152246691283
H           -4.44817633754539        2.53071437335526       -0.77988660192894
H           -3.52180164168289       -1.98400367754456       -1.27315911910391
H           -4.53128488426978       -4.10800578630500       -2.00324729649264
H           -6.92789841135794       -4.53378708524570       -1.71419258937924
H           -8.40454788765877       -2.81825076094079       -0.72062133144110
H           -9.45797672454589       -0.53994356149981        0.38298403126369
H           -9.80562453928676        1.67887683347986        1.41626674335460
H           -7.90974961123839        3.17526360224370        1.83537626406874
H           -5.62072002061359        2.53395970429217        1.19804790487747
H           -2.87858119533550       -1.13359793033411        0.81020775098893
H           -0.63763380847272       -0.15457345082858        0.87411886364798
H            2.20139215700575        3.51000447369886        0.71093571680788
H            4.44479039296792        2.52732673124487        0.77398745435393
