64
 energy: -98.576287886759 gnorm: 0.000117973605 xtb: 6.7.1 (edcfbbe)
C            7.31029247906415       -2.83725347412039       -2.10453806474479
C            6.02981826467823       -3.21689824445685       -1.70361367278286
C            5.21312497192150       -2.35257709515334       -0.99283668258810
C            5.70198819888727       -1.09086854618920       -0.69586991818606
C            7.01969090604509       -0.71160005666291       -1.06371263614719
C            7.81832063408812       -1.59441810799057       -1.78337655746660
C            7.23256840617773        0.60006809189777       -0.53507746952680
C            8.30076958408446        1.48999945060739       -0.58145241325078
C            8.15881178754978        2.72792258459672        0.01299211722481
C            6.96592620487448        3.09599234228287        0.63457330685742
C            5.89075529200737        2.22477569687889        0.69925881962128
C            6.03607062133249        0.96856808420630        0.13379876794884
N            5.11658336173825       -0.06314441025766        0.02730831371372
C            3.84009418489675       -0.06428881890643        0.55995316373117
C            3.61430518483853        0.36851018261794        1.88784805686504
C            2.35858478016592        0.35678153307413        2.41727342334387
C            1.23929278129256       -0.03969395092705        1.63897424319665
N           -0.00029119909527       -0.01244466616961        2.21631506702107
C           -1.23975855248592        0.02152013082427        1.63914884468364
C           -2.35918546266054       -0.38397656281744        2.41261780186281
C           -3.61483422919627       -0.38948323581607        1.88291780423757
C           -3.84043804648570        0.05874725488327        0.56011937037119
N           -5.11686524657890        0.06382681798133        0.02731486267213
C           -5.70217434712677        1.09991031091001       -0.68391197356190
C           -5.21327174248335        2.36499865430802       -0.96611255794188
C           -6.02986121716049        3.23753402567540       -1.66688917130129
C           -7.31027848860298        2.86259342907356       -2.07238771479449
C           -7.81834501871270        1.61609313575782       -1.76578799165489
C           -7.01982381300120        0.72497370770660       -1.05634891138501
C           -7.23278039600829       -0.59279017149217       -0.54306641401106
C           -8.30097117609288       -1.48208954963669       -0.59996114142254
C           -8.15911765872225       -2.72686583801730       -0.01996131355857
C           -6.96632493803150       -3.10215857306705        0.59745957611155
C           -5.89115949557082       -2.23177155572214        0.67244355968443
C           -6.03637164086746       -0.96905136428527        0.12162969095815
C           -2.73715297907227        0.52819092322605       -0.18975389357166
C           -1.47382292548557        0.50067145525878        0.32518393847590
C            1.47352999583579       -0.50349630736244        0.31955835542025
C            2.73693021811532       -0.52500236023403       -0.19549240972696
H            7.91583254836741       -3.53596304201550       -2.66284037351266
H            5.66917996660209       -4.20524575493517       -1.94581275986658
H            4.23408137232783       -2.66828774803692       -0.66620103088360
H            8.81826747597835       -1.31080856313704       -2.07499532455803
H            9.21771177390256        1.21548138991305       -1.08067371942019
H            8.97759391136766        3.43186267780894       -0.01291859514837
H            6.87557662336892        4.08043953541731        1.06848180611400
H            4.96411931155655        2.52933196262672        1.16161099922452
H            4.45930240909245        0.65789656900441        2.49368392865253
H            2.19790749523856        0.65846209966353        3.44310804092312
H           -0.00036157299684       -0.01830138175444        3.23060593718213
H           -2.19864922289442       -0.69760345888326        3.43488404455604
H           -4.45992311364830       -0.68588351256405        2.48523243807802
H           -4.23426336559702        2.67687536936078       -0.63569259709497
H           -5.66918757915490        4.22863408970902       -1.89751970975334
H           -7.91574452082224        3.56775702451467       -2.62260335131516
H           -8.81825703911085        1.33590723690656       -2.06084342471973
H           -9.21785295792082       -1.20177162569643       -1.09607759050865
H           -8.97790715811998       -3.43044676261189       -0.05419004301108
H           -6.87605041088795       -4.09159459676667        1.01988846396780
H           -4.96458946597285       -2.54169613103718        1.13135912460401
H           -2.90123002982039        0.87956747785020       -1.19667469335319
H           -0.64863546458875        0.88561046150281       -0.25177937977789
H            0.64843169542097       -0.88169002502216       -0.26197579700607
H            2.90115651408883       -0.86461116821490       -1.20641337801416
