  72
       -107.65309507
 C         -7.2327204166        3.5524846977       -0.7837505936
 C         -7.7609584187        2.3280817174       -1.1591140643
 C         -7.0823850937        1.1575256998       -0.8815522451
 C         -5.8598344215        1.1962592319       -0.2114718644
 N         -5.1688195872        0.0142051508        0.0765731487
 C         -5.8695214487       -1.1400373740        0.4416644796
 C         -7.0180018697       -1.0532121429        1.2283966439
 C         -7.7075589784       -2.1965055061        1.5817786597
 C         -7.2631231115       -3.4414038698        1.1673850686
 C         -6.1203130763       -3.5337603542        0.3900113143
 C         -5.4283594627       -2.3957786177        0.0244276495
 C         -3.7718847712       -0.0082286641        0.0080618538
 C         -3.1003486385        0.6966640466       -0.9910405400
 C         -1.7221156161        0.6858502757       -1.0473143885
 C         -0.9743145345       -0.0356584898       -0.1201063033
 C          0.5004967169       -0.0410724394       -0.1781452591
 C          1.2127771828        1.1439750379        0.0603511521
 C          0.5549344031        2.3583769434        0.3896413157
 C          1.2527583725        3.5087540478        0.5921588766
 C          2.6566156894        3.5180157156        0.4737815914
 C          3.3281332064        2.3696974261        0.1879891747
 C          2.6411165947        1.1420989165       -0.0050290098
 C          3.3251900941       -0.0529207903       -0.2705314573
 C          4.8018388268       -0.0632483935       -0.3205233731
 C          5.4574176606       -0.2976584219       -1.5486276976
 C          6.8202671600       -0.3112617409       -1.6204203619
 C          7.6088880380       -0.0947588792       -0.4705152242
 C          9.0181150501       -0.1050292044       -0.5106361843
 C          9.7503771510        0.1114814419        0.6229557973
 C          9.1067679452        0.3487418270        1.8479247902
 C          7.7422974017        0.3636663392        1.9198716804
 C          6.9576818583        0.1426898997        0.7683490878
 C          5.5494884928        0.1528664454        0.8104453588
 C          2.6143044816       -1.2408611036       -0.4936241325
 C          3.2777334980       -2.4733682213       -0.7324501068
 C          2.5796746637       -3.6151850195       -0.9780626818
 C          1.1711562250       -3.5942160387       -1.0054275593
 C          0.4971066776       -2.4391811684       -0.7541784490
 C          1.1851545579       -1.2311990599       -0.4659861977
 C         -1.6486790468       -0.7478384369        0.8686702772
 C         -3.0262663596       -0.7320534158        0.9386440388
 C         -5.3342214242        2.4315535686        0.1672722319
 C         -6.0165200011        3.5969170169       -0.1220888125
 H         -7.7648892830        4.4651408289       -1.0050363924
 H         -8.7061310438        2.2839325649       -1.6801139911
 H         -7.4921038151        0.2047921046       -1.1838327439
 H         -7.3610682785       -0.0847199688        1.5618961522
 H         -8.5941141447       -2.1149202655        2.1934457995
 H         -7.8034405081       -4.3327315874        1.4479499800
 H         -5.7692992859       -4.4995799496        0.0572062368
 H         -4.5438286283       -2.4700138717       -0.5912735410
 H         -3.6690309507        1.2514994522       -1.7229390147
 H         -1.2126841071        1.2296579550       -1.8298170637
 H         -0.5208991962        2.3531429328        0.4810612727
 H          0.7362378414        4.4241518154        0.8415834981
 H          3.1943765760        4.4438930589        0.6168319951
 H          4.4043854927        2.3776584468        0.1001468005
 H          4.8575179993       -0.4587697610       -2.4330576992
 H          7.3166448306       -0.4885250315       -2.5642510845
 H          9.5087539619       -0.2867882844       -1.4566173996
 H         10.8300122401        0.1027252177        0.5852139481
 H          9.7014832601        0.5187949061        2.7337070333
 H          7.2417090576        0.5451526985        2.8605867477
 H          5.0558916897        0.3282051804        1.7565738431
 H          4.3573970479       -2.4904496130       -0.7131776875
 H          3.0993839815       -4.5447491579       -1.1589121245
 H          0.6323430849       -4.5045541279       -1.2244467715
 H         -0.5823972737       -2.4246491596       -0.7752142333
 H         -1.0805073596       -1.3025862372        1.6014654315
 H         -3.5362206021       -1.2765041890        1.7199306828
 H         -4.3910346227        2.4684313764        0.6926484181
 H         -5.5989237681        4.5465579888        0.1789716949
