72
 energy: -107.653156945985 gnorm: 0.000045221204 xtb: 6.7.1 (edcfbbe)
C           -7.25728462834103        3.52645828692302       -0.85022022385909
C           -7.77332382231567        2.29193866908053       -1.20898402997035
C           -7.08662261205524        1.13165568363446       -0.90928816331977
C           -5.86848810292737        1.19075470019457       -0.23251047088342
N           -5.17016422810727        0.01881225437639        0.07817699264587
C           -5.86576055037523       -1.13675543971339        0.44992268541094
C           -7.02122347663726       -1.04961627041507        1.22627985852813
C           -7.70567902702162       -2.19386294733344        1.58655544573817
C           -7.24886254096803       -3.44009317863562        1.18998655453791
C           -6.09913252506006       -3.53276124177623        0.42293300560989
C           -5.41263025496923       -2.39389066334167        0.04994688931073
C           -3.77267221754113        0.00420687871516        0.02054738106686
C           -3.09637499038422        0.70738176745081       -0.97663169660951
C           -1.71776315270322        0.69923827814088       -1.02445087823212
C           -0.97409772766897       -0.01923030290918       -0.09169258948479
C            0.50094986838764       -0.02899207341205       -0.14815276789039
C            1.21731794881830        1.15192521004941        0.09735809627951
C            0.56381458993122        2.36545413956454        0.43823828403911
C            1.26591508042522        3.51160998050950        0.64975860145674
C            2.66971892802981        3.51737790831814        0.52915967504428
C            3.33704764745446        2.36986308525549        0.23066641631071
C            2.64537669023380        1.14665523596034        0.02688820094552
C            3.32467392302930       -0.04733697306494       -0.25369656208627
C            4.80110430886603       -0.05909039241836       -0.31877807190458
C            5.44163137895945       -0.25640780604082       -1.56113016862581
C            6.80350861582822       -0.26587970177446       -1.64989341223035
C            7.60568493315619       -0.08367523080253       -0.50344468065887
C            9.01434155903656       -0.08916320402109       -0.56129723579612
C            9.76020811994698        0.09175836845383        0.56963181349686
C            9.13138743917697        0.28631340577336        1.80969221492405
C            7.76787782482841        0.29662702136096        1.89877646052723
C            6.96942023122255        0.11293065378322        0.75025495921203
C            5.56174055153230        0.12180977343837        0.80947452635771
C            2.61003057288096       -1.23179235479288       -0.48152356969014
C            3.27010829337806       -2.46317161266971       -0.73480219772682
C            2.56844156115534       -3.60229349231791       -0.98255708260519
C            1.15972188456936       -3.57897415569037       -0.99878415638322
C            0.48913005219477       -2.42441093435463       -0.73626815460338
C            1.18111225819180       -1.21930093941709       -0.44556485088057
C           -1.65272009075408       -0.72728028655437        0.89694039948689
C           -3.03069522099449       -0.71248128471964        0.95964668702184
C           -5.35554588892359        2.43625401705782        0.12985991878739
C           -6.04540576219550        3.59123347170252       -0.18240102788322
H           -7.79551056831642        4.43108098037655       -1.08915270644525
H           -8.71495494344401        2.23162309766398       -1.73477955649444
H           -7.48671355768278        0.17113145963582       -1.19955289950135
H           -7.37421111445805       -0.08003098764657        1.54601520182967
H           -8.59818650770715       -2.11180203391516        2.18943923270705
H           -7.78478696085552       -4.33216525910477        1.47652961757526
H           -5.73804241145339       -4.49969105209407        0.10434114453062
H           -4.52265724034345       -2.46879182930989       -0.55776871163805
H           -3.66130366127877        1.25783734131246       -1.71468909716352
H           -1.20475281085877        1.24189050158808       -1.80541905082984
H           -0.51196415782760        2.36248921383728        0.53123642265194
H            0.75299577888443        4.42650914328867        0.90838898269669
H            3.21076115369749        4.43992703196002        0.68109757504519
H            4.41330902860781        2.37439541088426        0.14193473853857
H            4.83091325164131       -0.39240363524198       -2.44236009204904
H            7.28859445406602       -0.41330746192276       -2.60465858284521
H            9.49348168302179       -0.23917391964849       -1.51864657574221
H           10.83929000509750        0.08652622889125        0.51830262372833
H            9.73672161341710        0.42780420133753        2.69329893535525
H            7.27873076730872        0.44641225584000        2.85099581959943
H            5.07928599588350        0.26829832489635        1.76618956188581
H            4.34995113598820       -2.48101676642442       -0.72451883192946
H            3.08515342073731       -4.53152971671960       -1.17343365854432
H            0.61789849071622       -4.48735837135563       -1.21852115301290
H           -0.59048674859019       -2.40817961096802       -0.74920023531379
H           -1.08791652973373       -1.27899164841643        1.63461955484711
H           -3.54379516126148       -1.25394030881520        1.74093975420491
H           -4.41627947278496        2.48947598615454        0.66082785712873
H           -5.63742780866210        4.54888064851092        0.10622970139934
