  76
       -127.39466581
 C          8.8684846844       -0.2912813119        2.9770476133
 C          7.6580519889        0.3663010460        3.0562654656
 C          6.7257188340        0.2452970680        2.0368775559
 C          6.9934335246       -0.5288867944        0.9149319643
 C          8.2112813803       -1.2204677171        0.8610636061
 C          9.1386025012       -1.0937338870        1.8783213230
 O          8.5378993613       -2.0593341891       -0.1752433755
 C          7.6242624706       -2.1973035823       -1.1904206451
 C          7.9694208454       -3.0358281774       -2.2336220300
 C          7.1126031476       -3.2015929882       -3.3119083196
 C          5.9202490437       -2.5079649906       -3.3452237881
 C          5.5684039422       -1.6667639667       -2.3003821290
 C          6.3999912853       -1.5155399527       -1.1979138776
 N          6.0769250845       -0.6755315092       -0.1294772083
 C          4.8432423207        0.0073237492       -0.1055238669
 C          3.6441918185       -0.7204764471       -0.0647297454
 C          2.4409068407       -0.0630498903       -0.0373655844
 C          2.3903721125        1.3369124341       -0.0440070266
 C          3.5927353169        2.0763712011       -0.0801231768
 C          3.5482749047        3.5052560098       -0.0862178157
 C          2.3756845721        4.1766094166       -0.0533118931
 C          1.1380713555        3.4690527895       -0.0137970580
 N         -0.0008300855        4.1547464169        0.0217634497
 C         -1.1391850709        3.4678347531        0.0528939265
 C         -2.3774592014        4.1739494522        0.0950941558
 C         -3.5495057024        3.5012779011        0.1220717407
 C         -3.5926275884        2.0724770530        0.1055817348
 C         -4.8105019509        1.3828823204        0.1321589788
 C         -4.8421651281        0.0023933076        0.1072112277
 N         -6.0744651619       -0.6822940494        0.1197378888
 C         -6.9975908035       -0.5101144690       -0.9153724312
 C         -6.7360100705        0.2888377180       -2.0214178992
 C         -7.6754501890        0.4361164877       -3.0306940455
 C         -8.8871767594       -0.2199555934       -2.9579844400
 C         -9.1506612285       -1.0482430119       -1.8771060000
 C         -8.2160084431       -1.2012671623       -0.8701251143
 O         -8.5363860482       -2.0658574754        0.1466318921
 C         -7.6178725553       -2.2270367626        1.1537918830
 C         -7.9583096654       -3.0898299661        2.1786925420
 C         -7.0975414011       -3.2794458929        3.2497877827
 C         -5.9065433658       -2.5841827560        3.2952386418
 C         -5.5594650845       -1.7188980402        2.2686357116
 C         -6.3940173734       -1.5447147329        1.1717205355
 C         -3.6419146725       -0.7238211473        0.0626911688
 C         -2.4391224511       -0.0654531851        0.0471342627
 C         -2.3895212575        1.3345227482        0.0668935453
 C         -1.1392383485        2.0409130620        0.0435803367
 N          0.0004546416        1.3567575835        0.0135033862
 C          1.1394448397        2.0421136407       -0.0130788337
 C          4.8109591741        1.3879234476       -0.1158959614
 H          9.5996034080       -0.1960250315        3.7641815561
 H          7.4239034518        0.9790450187        3.9131877946
 H          5.7768775014        0.7515718152        2.1210860775
 H         10.0659356871       -1.6373398907        1.7933500204
 H          8.9178214064       -3.5465804932       -2.1852146499
 H          7.3890294729       -3.8602229422       -4.1199618505
 H          5.2519982154       -2.6102129424       -4.1864009585
 H          4.6410608137       -1.1176571786       -2.3480504506
 H          3.6852713451       -1.7995076212       -0.0471591228
 H          1.5098923537       -0.6059638235       -0.0005163044
 H          4.4875642003        4.0388620176       -0.1165626641
 H          2.3300718523        5.2545474127       -0.0561793860
 H         -2.3330042221        5.2519102256        0.1034996321
 H         -4.4892832796        4.0338673668        0.1542300300
 H         -5.7354302508        1.9401865245        0.1745269504
 H         -5.7863506746        0.7941642180       -2.1016109942
 H         -7.4458552773        1.0678178886       -3.8750100305
 H         -9.6238228237       -0.1040016947       -3.7371287148
 H        -10.0780895631       -1.5926739210       -1.7987642880
 H         -8.9063401083       -3.6003769341        2.1217547849
 H         -7.3699891067       -3.9575570762        4.0429511268
 H         -5.2351164442       -2.7042754620        4.1315108054
 H         -4.6332754882       -1.1689418765        2.3269180693
 H         -3.6820795034       -1.8026032968        0.0327089352
 H         -1.5075664786       -0.6073218362        0.0088123861
 H          5.7359086636        1.9455800209       -0.1533444405
