131
 energy: -177.609928534023 gnorm: 0.000126131287 xtb: 6.7.1 (edcfbbe)
C            0.12135311700611        5.73726356145698       -0.54168650485371
C           -0.96207009517089        4.83771498827225       -1.12619553519721
C           -1.20786144358196        3.57258533936781       -0.29992831566425
C           -0.06795051204841        2.56685782329968       -0.43753015172488
C           -0.14007726606741        1.32476426174986        0.47438098496462
C           -0.24170059176691        1.65275852761416        1.97862452415180
C            0.83771443708229        2.56832210050386        2.54873115406909
C            0.55196249811765        2.90849800807046        4.01065573913614
C            1.62926582084945        3.81125137317175        4.59913332036110
C            1.05227696362205        0.44493349759851        0.15070210964056
C            2.39362650446080        0.74133451063501        0.21093231880510
C            3.32651775796668       -0.23616074955890       -0.16119929087452
C            4.70321271199238        0.05299501498880       -0.08793848110156
C            5.88203742465557        0.31137357686314       -0.01699146480577
C            7.25749387535393        0.60375523142660        0.06320370442096
C            7.68349105931582        1.79815425644958        0.65570395098746
C            9.02725283067067        2.09858753666755        0.75206737946704
C            9.95223693233116        1.19479517792675        0.24885195749274
C            9.53125804782866       -0.00253306033650       -0.35228242806276
C            8.19396460469964       -0.30289652261607       -0.45064126550500
C           10.71766472394369       -0.79344195348045       -0.86140307400577
C           10.75417784320998       -2.21944215616002       -0.29456951821360
C           10.70961291489705       -2.24714980441906        1.23240328697088
C           10.76269596844241       -3.67444908778896        1.76245037296257
C           10.62527180659284       -0.79273511950447       -2.40588493614062
C           11.82026585059666       -1.37474487942541       -3.15549691694557
C           11.55627075913408       -1.39284368597424       -4.65707390128558
C           11.87181234346156        0.04963648984037       -0.37016699116099
C           13.22188734327832       -0.20615369858586       -0.42782304298008
C           14.10827765110703        0.74575652338509        0.09177977817020
C           15.49733147359573        0.49956838519168        0.03465765835509
N           16.62507652610647        0.29526552641463       -0.01626276352549
C           13.63924236402366        1.92949160257458        0.66658897790697
C           12.28165256483766        2.16940518807457        0.75132995073229
C           11.40085064037678        1.22667014164613        0.24057566059049
C            2.89774667201066       -1.49041767649444       -0.60701311753757
C            1.55119695042116       -1.77811385229826       -0.69804860977378
C            0.63094219630716       -0.80935409850279       -0.32352705609957
C           -0.81618173372648       -0.83473587469421       -0.34052661461979
C           -1.69269838877673       -1.84506255700594       -0.71008370199417
C           -3.05048125648665       -1.62017321016386       -0.61044527311255
C           -3.53389086405193       -0.39998603206844       -0.12729425437456
C           -4.92194639568876       -0.18783986294195       -0.01577782509113
C           -6.11199982465106        0.00357885212752        0.07660219983982
C           -7.50009681312319        0.21786300363186        0.18280372203400
C           -7.98572471092618        1.47206878792253        0.56810802272243
C           -9.34350145743769        1.70137231687829        0.65276565577949
C          -10.21771461020457        0.66113165768489        0.37044440409577
C           -9.73993841745600       -0.61120136845822        0.01276084193999
C           -8.38689600509382       -0.82797854839078       -0.10605549886907
C          -10.89068537733318       -1.56217404646602       -0.25532470095692
C          -10.78818671610047       -2.02455669780546       -1.72351123811237
C          -11.87975958299290       -2.96762496001750       -2.22218385546270
C          -11.57600517044811       -3.43752130766664       -3.64070536311521
C          -10.95705399232738       -2.71573979956047        0.76750518648355
C           -9.81862735349634       -3.73125793970620        0.72433724334049
C          -10.07360877551343       -4.86519919179204        1.71139222802214
C          -12.08383410836765       -0.65978661064182       -0.00852133591276
C          -13.42539004860154       -0.96277715088622       -0.04016694643995
C          -14.35134668746971        0.04774809601973        0.24725113677965
C          -15.73117647140026       -0.24807570919328        0.20318051843220
N          -16.85112312819369       -0.49363295069708        0.16418630743647
C          -13.93158022182930        1.33767161619998        0.58093998712677
C          -12.58402920780475        1.63092698277219        0.64658795634277
C          -11.66506377141865        0.63194673453474        0.35692862728800
C           -2.64517537967029        0.61548178072284        0.25103038963365
C           -1.29257253355313        0.40428638932535        0.12165126201333
H            0.20663775901350        6.65161391504383       -1.12445420437247
H            1.09081154674128        5.24526587307322       -0.54824650458092
H           -0.12172782499476        6.00824030911749        0.48398238302551
H           -1.89448480722373        5.40504067688657       -1.17701945851182
H           -0.69190673437202        4.55664381827234       -2.14658319643690
H           -2.13465153457182        3.11178844221302       -0.64456476678359
H           -1.33670215572639        3.85868363651372        0.74493979359809
H           -0.03666873309436        2.21427695924623       -1.47288460081171
H            0.88033688786915        3.06664740034313       -0.23930942484359
H           -1.21867822850458        2.10506579346537        2.16170616565837
H           -0.22158397731769        0.70424577361218        2.52368905581548
H            1.80947741227570        2.07700567838292        2.48897705378052
H            0.88656800319439        3.49612221020282        1.97684340768536
H            0.49397233185701        1.98548296971470        4.59214516980052
H           -0.41795946884566        3.40643502864078        4.08525691287186
H            1.69075861578102        4.74508907018449        4.04391744011267
H            2.60078624984539        3.32350599754697        4.55612961371854
H            1.40878068096507        4.04451055358640        5.63814706142902
H            2.75352488958045        1.70885191954041        0.52687145920298
H            6.94213559074361        2.48273967173395        1.04131453219620
H            9.34996821729198        3.02043737791925        1.21273157434092
H            7.85008887914856       -1.21956880358866       -0.90711814541002
H           11.66573694997603       -2.71734532792158       -0.62882504441867
H            9.90326817460814       -2.77881015454939       -0.68978055698072
H            9.79355978002323       -1.76399163638236        1.57970723040422
H           11.55418667956367       -1.67989210712731        1.63078521068184
H           11.68015733586505       -4.16636311955150        1.44618442479489
H            9.91872335409065       -4.25177845992441        1.39071923083119
H           10.72893854580763       -3.67954915938837        2.84915384218563
H            9.72837807251717       -1.35185869454183       -2.68365718447182
H           10.48066251248352        0.24091431848227       -2.73358376462703
H           12.01701344122744       -2.39359021024829       -2.81829020327465
H           12.70770919750750       -0.77119483428591       -2.96008632323220
H           12.41465512252758       -1.79544662518003       -5.18938892225310
H           10.68977205445923       -2.00921786733735       -4.88726898996983
H           11.36676033820881       -0.38627084062578       -5.02362910028965
H           13.61412894606909       -1.12073085001542       -0.84652160058634
H           14.34949685363163        2.64501391750548        1.05443765020551
H           11.91494699400299        3.07296650022245        1.21449500934333
H            3.63592168319676       -2.22731747365122       -0.88842402762800
H            1.22051275066979       -2.74049924417670       -1.05965774992968
H           -1.31986657870891       -2.79414078429414       -1.06582241736957
H           -3.75554559339195       -2.38770401459276       -0.89488877360669
H           -7.28189185032562        2.26211516819480        0.78544102558725
H           -9.71814972037770        2.67556750702187        0.92973672220763
H           -7.98467041004338       -1.77776673401483       -0.42415337742385
H          -10.78694335958159       -1.12841898939385       -2.35128695347885
H           -9.81908463358802       -2.50965416056099       -1.85642046003454
H          -11.95380807977803       -3.83828470403806       -1.56911320999868
H          -12.84216362525536       -2.45496672779576       -2.22109941189838
H          -12.36292850005649       -4.09608118029109       -4.00059204716141
H          -11.50363244660215       -2.58850315479371       -4.31705903535755
H          -10.63352845524376       -3.98052503765116       -3.67267430675541
H          -10.98770337384793       -2.26864381792345        1.76570559269295
H          -11.90220700575809       -3.24316483638999        0.62320809655471
H           -8.87833870997209       -3.24378509106544        0.98331220967385
H           -9.72446347630987       -4.14919783003827       -0.27892464384992
H          -10.16277553493811       -4.47739197652293        2.72389927443448
H          -10.99424256054512       -5.39033326732255        1.46505902847153
H           -9.25510759527809       -5.58092290490530        1.68959313447280
H          -13.78590261716976       -1.95391059987337       -0.26999788651658
H          -14.67133532940313        2.09461930978654        0.79670671121898
H          -12.25323257048228        2.62056763990802        0.92321947581115
H           -3.04618362542591        1.53731209042903        0.64432925725252
