  114
       -175.10521622
 C          1.6607699172        0.2246345446        9.0082851114
 C          1.8689498601       -1.0757898108        9.4438548541
 N          1.8346134586       -2.1211237691        8.6344957375
 C          1.5977049155       -1.9143023193        7.3541429969
 C          1.3830757455       -0.6528089351        6.7949192980
 C          1.1263583483       -0.4917542172        5.3596017851
 C          0.1588884953        0.4015607957        4.9048985285
 C         -0.0909340017        0.5372619410        3.5534593299
 C          0.6162824538       -0.2031526202        2.6119512704
 Si         0.2632019741       -0.0594789127        0.7579757832
 C          1.9153465878       -0.0415385763       -0.1634643938
 C          2.1234668051       -0.7964227503       -1.3132310955
 C          3.3333107114       -0.7731487244       -1.9785866079
 C          4.3714470031        0.0270249819       -1.5085093060
 N          5.5982045507        0.0614639192       -2.1798576499
 C          6.8424106125       -0.0898577482       -1.5989342266
 C          7.1762176778       -0.3563933364       -0.2787034549
 C          8.5155563454       -0.4904826183        0.0340547929
 C          9.5055496943       -0.3733542369       -0.9389417612
 C          9.1783422757       -0.1347211922       -2.2586925054
 C          7.8388292530        0.0040889804       -2.5974324902
 C          7.1528717341        0.2291209584       -3.8390505949
 C          7.5822588252        0.4195703191       -5.1458418028
 C          6.6366650946        0.6396459517       -6.1272575085
 C          5.2796582765        0.6876681684       -5.8160199058
 C          4.8283203879        0.5017024622       -4.5232582348
 C          5.7720869506        0.2536944938       -3.5367382466
 C          4.1771274138        0.7909703107       -0.3599927737
 C          2.9663683852        0.7454419497        0.3007453095
 C         -0.7206766992        1.5148851901        0.3863778389
 C         -2.0872800664        1.5533461692        0.6525795980
 C         -2.8408793550        2.6773229156        0.3840050998
 C         -2.2384318759        3.8000254435       -0.1790355631
 N         -3.0036509496        4.9332148063       -0.4744580012
 C         -4.1987876255        4.9376208055       -1.1673352715
 C         -4.8772260924        3.8863380557       -1.7674427534
 C         -6.0547312646        4.1730766045       -2.4312055774
 C         -6.5479304752        5.4735521768       -2.5092846886
 C         -5.8636109408        6.5274060729       -1.9375911190
 C         -4.6775585348        6.2641139647       -1.2649745433
 C         -3.7196858053        7.0943882748       -0.5897271881
 C         -3.6475986921        8.4582024195       -0.3386900714
 C         -2.5728147444        8.9425668166        0.3796281827
 C         -1.5864039043        8.0835912639        0.8590436815
 C         -1.6363311900        6.7231131935        0.6222278655
 C         -2.7008917031        6.2334570480       -0.1209086363
 C         -0.8733262037        3.7766760553       -0.4516807893
 C         -0.1311342192        2.6475440845       -0.1648777449
 C         -0.8114145497       -1.5119326001        0.1932583261
 C         -1.0034036914       -2.6392142758        0.9850870600
 C         -1.8284994621       -3.6698852659        0.5797601079
 C         -2.4789527226       -3.5987411299       -0.6493069114
 N         -3.3300225341       -4.6290266397       -1.0624313817
 C         -3.0377997303       -5.9788535453       -1.0490131864
 C         -1.8605666527       -6.6257035130       -0.7009131702
 C         -1.8256186001       -8.0030599547       -0.8064561711
 C         -2.9277658650       -8.7268088754       -1.2560753777
 C         -4.0927351877       -8.0868781976       -1.6290993994
 C         -4.1520899872       -6.7029882662       -1.5314154612
 C         -5.1655586542       -5.7339427320       -1.8422894139
 C         -6.4637809493       -5.8317395118       -2.3255162205
 C         -7.1968906946       -4.6738116118       -2.4916758281
 C         -6.6565711673       -3.4316651334       -2.1665493555
 C         -5.3674327456       -3.3090998922       -1.6842681158
 C         -4.6159660724       -4.4668543641       -1.5406616951
 C         -2.2835766273       -2.4833989227       -1.4607700839
 C         -1.4669230295       -1.4561760169       -1.0343195561
 C          1.5900767267       -1.0856498861        3.0731159746
 C          1.8416784631       -1.2344990278        4.4219218194
 C          1.4156273752        0.4373100659        7.6633415228
 H          1.6959957818        1.0495438528        9.7029398853
 H          2.0730153698       -1.2961495170       10.4830611551
 H          1.5588177422       -2.8036446614        6.7379361072
 H         -0.4153272963        0.9752859461        5.6185037792
 H         -0.8484005508        1.2315136604        3.2186834568
 H          1.3265773893       -1.4244789035       -1.6841892723
 H          3.4886881631       -1.3850260893       -2.8548046392
 H          6.4163682295       -0.4673697183        0.4802988625
 H          8.8003091182       -0.6945603925        1.0556600585
 H         10.5411552360       -0.4818452326       -0.6536094505
 H          9.9437183285       -0.0610850526       -3.0163414339
 H          8.6351346458        0.3994616730       -5.3831505738
 H          6.9486986917        0.7867276976       -7.1503249562
 H          4.5638637698        0.8790074711       -6.6017969472
 H          3.7756422319        0.5588097139       -4.2901323555
 H          4.9743919940        1.4255526844       -0.0021318789
 H          2.8281062624        1.3361129687        1.1953106393
 H         -2.5662946669        0.6832706917        1.0787827435
 H         -3.8950654183        2.7004157995        0.6173014918
 H         -4.4940274987        2.8776288300       -1.7293339389
 H         -6.6027255418        3.3708628619       -2.9030068912
 H         -7.4733889016        5.6559999144       -3.0345350418
 H         -6.2361680035        7.5377238418       -2.0129292010
 H         -4.4212453317        9.1209007485       -0.6958435582
 H         -2.4962600164        9.9999514214        0.5838978258
 H         -0.7655893741        8.4892920975        1.4318271178
 H         -0.8765502008        6.0636938812        1.0142106067
 H         -0.4070456414        4.6378889747       -0.9068476146
 H          0.9259021933        2.6372315907       -0.3880037702
 H         -0.5104058899       -2.7008828408        1.9444291387
 H         -1.9921994572       -4.5243970549        1.2194519153
 H         -0.9944837687       -6.0729918513       -0.3690650214
 H         -0.9218108031       -8.5295597388       -0.5375251518
 H         -2.8615877338       -9.8024569030       -1.3210934107
 H         -4.9413162528       -8.6455432253       -1.9938948210
 H         -6.8880093948       -6.7962266300       -2.5601480684
 H         -8.2071939970       -4.7272448948       -2.8686554522
 H         -7.2597343592       -2.5443135146       -2.2902472824
 H         -4.9656085428       -2.3432817718       -1.4168744883
 H         -2.7684253040       -2.4354311765       -2.4246031179
 H         -1.3340738471       -0.5880164241       -1.6644654472
 H          2.1609589295       -1.6609870915        2.3576213677
 H          2.6109667018       -1.9155290949        4.7566177913
 H          1.2701030986        1.4382708546        7.2816124822
