  74
       -114.43062477
 C          9.1724709555        0.2035194577       -2.5372176233
 C          9.3375510673        0.1250545926       -1.0178219138
 C          9.5876212971       -1.3182398842       -0.5748031344
 C          8.1283144207        0.6935512349       -0.3192383672
 C          8.2426125264        1.7942940564        0.5185050077
 C          7.1377924614        2.3316353411        1.1594742037
 C          5.8802835452        1.7624145933        0.9640178686
 O          4.8282325761        2.3102028349        1.6063438682
 C          3.6021716612        1.7640415057        1.4256057777
 C          3.3278209644        0.6608996025        0.6195903534
 C          1.9807862101        0.1715828824        0.4716237815
 C          0.9686131386        0.4813989895        1.4108478583
 C         -0.2967879148       -0.0297390596        1.2934412810
 C         -0.6301305898       -0.8795414992        0.2305285880
 N         -1.9264666131       -1.4165567880        0.1180984069
 C         -2.0891210688       -2.7916743939        0.1675941164
 C         -0.9785035261       -3.6209238617        0.3882774912
 C         -1.1093856874       -4.9903478933        0.4100658305
 C         -2.3570053265       -5.5685532741        0.2318266372
 C         -3.4634300651       -4.7550951614        0.0770368890
 C         -3.3625342275       -3.3703217207        0.0548821359
 C         -4.6200528821       -2.5365501242       -0.0397820599
 C         -5.5110403023       -2.8707245237        1.1720741683
 C         -5.3503337518       -2.8843122901       -1.3513399018
 C         -4.3256152831       -1.0507071682       -0.0410402605
 C         -5.3838982408       -0.1661088791       -0.1143123885
 C         -5.1533933057        1.2077821379       -0.1840334923
 C         -3.8190941343        1.6757855623       -0.2274812420
 C         -2.7487973290        0.8243366568       -0.1597332608
 C         -3.0003238003       -0.5589509700       -0.0162961696
 O         -3.7689276703        3.0290108071       -0.3487296563
 C         -5.0661486375        3.4561806334       -0.3767298773
 C         -5.4972249927        4.7606956567       -0.4845408492
 C         -6.8696811610        4.9790469536       -0.4945074050
 C         -7.7735159997        3.9233076102       -0.4004419678
 C         -7.3440227986        2.6168484339       -0.2933509095
 C         -5.9701219020        2.3714348047       -0.2798807677
 C          0.3528562845       -1.1793972266       -0.7241680350
 C          1.6126722451       -0.6554724887       -0.6101832121
 C          4.4220400588        0.0244343639       -0.0839356368
 O          4.3152331805       -0.9826647194       -0.7997163651
 C          5.7418476720        0.6506726845        0.1232505748
 C          6.8681480608        0.1286087007       -0.5012088943
 H          8.3308426124       -0.4013212002       -2.8639799525
 H          8.9968258094        1.2316323350       -2.8464617946
 H         10.0705188526       -0.1591451052       -3.0327868362
 H         10.2095553581        0.7264124728       -0.7362240159
 H          8.7538365058       -1.9561971204       -0.8554741250
 H          9.7085471524       -1.3673138770        0.5052305502
 H         10.4905181609       -1.7046304055       -1.0428883349
 H          9.2111235686        2.2462159853        0.6784835827
 H          7.2290205314        3.1810943221        1.8175836196
 H          2.8535778787        2.3063993981        1.9756894418
 H          1.2060404279        1.0804457083        2.2744628859
 H         -1.0446062376        0.1855393611        2.0433031210
 H         -0.0077108398       -3.1829985979        0.5527454318
 H         -0.2388838901       -5.6067086875        0.5728303797
 H         -2.4699700391       -6.6415220716        0.2374257438
 H         -4.4328894804       -5.2179924209       -0.0242462579
 H         -5.7556119513       -3.9285788578        1.1947705927
 H         -6.4390494795       -2.3082148421        1.1366967342
 H         -4.9912039589       -2.6185456953        2.0942173802
 H         -4.7159084318       -2.6457262294       -2.2026260764
 H         -6.2723643081       -2.3180646727       -1.4424853532
 H         -5.5946123580       -3.9418731345       -1.3905645719
 H         -6.4011989307       -0.5216760510       -0.1304807190
 H         -1.7451882891        1.2057875378       -0.2314036428
 H         -4.7937465783        5.5741301886       -0.5578931092
 H         -7.2412656317        5.9888569802       -0.5770672189
 H         -8.8321506677        4.1365713774       -0.4119420694
 H         -8.0459780067        1.8006038315       -0.2198755122
 H          0.0912399180       -1.7990933849       -1.5694542083
 H          2.3504582689       -0.8724171849       -1.3670682651
 H          6.7246209810       -0.7298596674       -1.1386870912
