  52
        -89.85018176
 N          5.8349452897       -1.9551447807        0.6247632978
 C          4.8552754406       -1.3721892415        0.4406340228
 C          3.6592086005       -0.7026572948        0.2034608746
 C          2.4422726928       -1.3520000330        0.3701095471
 C          1.2331758924       -0.7029732564        0.1929564326
 N          0.0446217746       -1.3579657626        0.4547001239
 C         -0.2743271754       -2.6544122872        0.0805368894
 C          0.4335681381       -3.5412342515       -0.7167520574
 C         -0.1423235914       -4.7701387451       -0.9902079597
 C         -1.3983226051       -5.1101563768       -0.4933898551
 C         -2.1285679658       -4.2166999492        0.2698260040
 C         -1.5688703340       -2.9800779935        0.5589883452
 C         -2.0517721828       -1.8235335042        1.2515210868
 C         -3.2124842975       -1.4754266110        1.9297945812
 C         -3.2783977326       -0.2060501142        2.4786858959
 C         -2.1947439978        0.6633381316        2.3466189725
 N         -1.0884170483        0.3594618050        1.6909299377
 C         -1.0271681984       -0.8440855262        1.1557151693
 C          1.2334407707        0.7027862193       -0.1966151137
 N          0.0451077534        1.3583016358       -0.4579995422
 C         -0.2740429323        2.6539871221       -0.0812775249
 C          0.4346164758        3.5399561004        0.7162744844
 C         -0.1416689783        4.7680089297        0.9928043558
 C         -1.3986964681        5.1079769902        0.4986451447
 C         -2.1295873580        4.2153273767       -0.2649362427
 C         -1.5695865296        2.9795515664       -0.5569934236
 C         -2.0527880296        1.8237917904       -1.2507666495
 C         -3.2145547401        1.4758297476       -1.9272293974
 C         -3.2803732053        0.2072946073       -2.4781768988
 C         -2.1956742071       -0.6613757116       -2.3497192905
 N         -1.0884262003       -0.3578479591       -1.6954734241
 C         -1.0273479414        0.8449147845       -1.1582898422
 C          2.4427169660        1.3517037172       -0.3729164486
 C          3.6594799901        0.7024503980       -0.2047624400
 C          4.8556809398        1.3723784941       -0.4402761975
 N          5.8351580393        1.9567150493       -0.6215564078
 H          2.4492226043       -2.3782993880        0.7081219431
 H          1.3937816007       -3.2818760314       -1.1330297527
 H          0.3925150851       -5.4769873933       -1.6056894377
 H         -1.8109846609       -6.0817657550       -0.7192344467
 H         -3.1142871710       -4.4687914265        0.6299205196
 H         -4.0321045835       -2.1718560418        2.0265643447
 H         -4.1609698478        0.1218094835        3.0043341000
 H         -2.2184617358        1.6576433050        2.7694402914
 H          1.3956254604        3.2804781676        1.1306614892
 H          0.3936463934        5.4740835157        1.6087173075
 H         -1.8115276838        6.0789301491        0.7265836338
 H         -3.1159499868        4.4675071093       -0.6231573509
 H         -4.0350667722        2.1716277980       -2.0211185150
 H         -4.1636319980       -0.1203975321       -3.0028087906
 H         -2.2192099780       -1.6547448480       -2.7748036085
 H          2.4499775715        2.3779913030       -0.7108700262
