  61
        -75.79614579
 C         -5.1856152804        2.7732734872       -0.0444663120
 C         -3.8473353725        2.1031049626        0.0014799154
 C         -2.8098421884        2.5348602423       -0.8239009965
 C         -1.5597871054        1.9485557191       -0.7988703540
 C         -0.5140878723        2.4642109192       -1.7421320952
 C         -1.3202910470        0.8386771429        0.0423025686
 B         -0.0022570953       -0.0044473651       -0.0042844097
 C          0.0009173802       -1.5378784636       -0.0057189261
 C          0.9228897637       -2.2947966250        0.7886456873
 C          1.9034091808       -1.5926318956        1.6763347994
 C          0.9080842316       -3.6695451257        0.7701106581
 C         -0.0073919439       -4.3895573935       -0.0030116046
 C         -0.0016617483       -5.8841984806        0.0144110484
 C         -0.9170232353       -3.6700001209       -0.7764528740
 C         -0.9223543393       -2.2929282850       -0.8006423949
 C         -1.8969601949       -1.5880759608       -1.6915764056
 C          1.3214949041        0.8358547902       -0.0444404799
 C          1.5664557102        1.9280814634        0.8153139954
 C          0.5264539558        2.4283354573        1.7731813428
 C          2.8180488306        2.5132706288        0.8430624185
 C          3.8484087672        2.0954095715        0.0037987827
 C          5.1914008620        2.7562800022        0.0542471113
 C          3.5894781497        1.0544439815       -0.8775108294
 C          2.3482958022        0.4469763216       -0.9416774055
 C          2.1209590642       -0.6273075774       -1.9603661752
 C         -2.3548414298        0.4374625414        0.9281752875
 C         -2.1351495293       -0.6519298281        1.9319673322
 C         -3.5953787663        1.0462377311        0.8652543049
 H         -5.7351471679        2.4519759084       -0.9309744329
 H         -5.7779105182        2.5217630757        0.8322661160
 H         -5.0754465968        3.8552647398       -0.0971393667
 H         -2.9933909327        3.3552635076       -1.5050214916
 H         -0.9718343101        3.0472316289       -2.5391032275
 H          0.0440444520        1.6408985525       -2.1823653300
 H          0.2021099831        3.1018195277       -1.2248830883
 H          1.4159370724       -0.7918804386        2.2293861755
 H          2.3526536033       -2.2904323933        2.3800754072
 H          2.7008868423       -1.1352365834        1.0902535643
 H          1.6137804149       -4.2181491813        1.3803699137
 H         -0.7277326272       -6.2867390353       -0.6878618997
 H          0.9860102918       -6.2661394823       -0.2448516411
 H         -0.2432913361       -6.2529279281        1.0123544436
 H         -1.6286689531       -4.2130889857       -1.3846869335
 H         -1.4044478668       -0.7901491846       -2.2446558654
 H         -2.3490337071       -2.2845200223       -2.3948925671
 H         -2.6931726194       -1.1248202072       -1.1077592139
 H         -0.0403615047        1.5990338556        2.1908855778
 H         -0.1832548417        3.0871520731        1.2732893091
 H          0.9901391092        2.9850187752        2.5856184430
 H          3.0058603917        3.3207752331        1.5382986458
 H          5.7399672913        2.5951820480       -0.8710791112
 H          5.0915127826        3.8267265344        0.2241278379
 H          5.7809627889        2.3420551555        0.8741729538
 H          4.3684126747        0.7297305654       -1.5547744870
 H          2.9261205464       -0.6428479825       -2.6920485157
 H          2.0736700843       -1.6063200352       -1.4820656007
 H          1.1748017009       -0.4785256803       -2.4787144397
 H         -1.1915344125       -0.5128090940        2.4576174263
 H         -2.0866687916       -1.6242587822        1.4398922744
 H         -2.9446064646       -0.6768577444        2.6586626678
 H         -4.3791960965        0.7098097681        1.5311314502
