  61
        -75.79614579
 C         -5.1856152804        2.7732734872       -0.0444663120
 C         -3.8473353725        2.1031049626        0.0014799154
 C         -2.8098421884        2.5348602423       -0.8239009965
 C         -1.5597871054        1.9485557191       -0.7988703540
 C         -0.5140878723        2.4642109192       -1.7421320952
 C         -1.3202910470        0.8386771429        0.0423025686
 B         -0.0022570953       -0.0044473651       -0.0042844097
 C          0.0009173802       -1.5378784636       -0.0057189261
 C          0.9228897637       -2.2947966250        0.7886456873
 C          1.9034091808       -1.5926318956        1.6763347994
 C          0.9080842316       -3.6695451257        0.7701106581
 C         -0.0073919439       -4.3895573935       -0.0030116046
 C         -0.0016617483       -5.8841984806        0.0144110484
 C         -0.9170232353       -3.6700001209       -0.7764528740
 C         -0.9223543393       -2.2929282850       -0.8006423949
 C         -1.8969601949       -1.5880759608       -1.6915764056
 C          1.3214949041        0.8358547902       -0.0444404799
 C          1.5664557102        1.9280814634        0.8153139954
 C          0.5264539558        2.4283354573        1.7731813428
 C          2.8180488306        2.5132706288        0.8430624185
 C          3.8484087672        2.0954095715        0.0037987827
 C          5.1914008620        2.7562800022        0.0542471113
 C          3.5894781497        1.0544439815       -0.8775108294
 C          2.3482958022        0.4469763216       -0.9416774055
 C          2.1209590642       -0.6273075774       -1.9603661752
 C         -2.3548414298        0.4374625414        0.9281752875
 C         -2.1351495293       -0.6519298281        1.9319673322
 C         -3.5953787663        1.0462377311        0.8652543049
 H         -5.7351471679        2.4519759084       -0.9309744329
 H         -5.7779105182        2.5217630757        0.8322661160
 H         -5.0754465968        3.8552647398       -0.0971393667
 H         -2.9933909327        3.3552635076       -1.5050214916
 H         -0.9718343101        3.0472316289       -2.5391032275
 H          0.0440444520        1.6408985525       -2.1823653300
 H          0.2021099831        3.1018195277       -1.2248830883
 H          1.4159370724       -0.7918804386        2.2293861755
 H          2.3526536033       -2.2904323933        2.3800754072
 H          2.7008868423       -1.1352365834        1.0902535643
 H          1.6137804149       -4.2181491813        1.3803699137
 H         -0.7277326272       -6.2867390353       -0.6878618997
 H          0.9860102918       -6.2661394823       -0.2448516411
 H         -0.2432913361       -6.2529279281        1.0123544436
 H         -1.6286689531       -4.2130889857       -1.3846869335
 H         -1.4044478668       -0.7901491846       -2.2446558654
 H         -2.3490337071       -2.2845200223       -2.3948925671
 H         -2.6931726194       -1.1248202072       -1.1077592139
 H         -0.0403615047        1.5990338556        2.1908855778
 H         -0.1832548417        3.0871520731        1.2732893091
 H          0.9901391092        2.9850187752        2.5856184430
 H          3.0058603917        3.3207752331        1.5382986458
 H          5.7399672913        2.5951820480       -0.8710791112
 H          5.0915127826        3.8267265344        0.2241278379
 H          5.7809627889        2.3420551555        0.8741729538
 H          4.3684126747        0.7297305654       -1.5547744870
 H          2.9261205464       -0.6428479825       -2.6920485157
 H          2.0736700843       -1.6063200352       -1.4820656007
 H          1.1748017009       -0.4785256803       -2.4787144397
 H         -1.1915344125       -0.5128090940        2.4576174263
 H         -2.0866687916       -1.6242587822        1.4398922744
 H         -2.9446064646       -0.6768577444        2.6586626678
 H         -4.3791960965        0.7098097681        1.5311314502
  61
        -75.79606424
 C         -5.1971427810        2.7388195840       -0.0634040088
 C         -3.8530861617        2.0815973119       -0.0064598781
 C         -2.8123916574        2.5278365182       -0.8212374465
 C         -1.5570995455        1.9545426358       -0.7884999828
 C         -0.5085969568        2.4846838417       -1.7202618465
 C         -1.3136913466        0.8409796172        0.0483716320
 B          0.0029242989       -0.0010938019       -0.0019739070
 C          0.0077310637       -1.5350137510       -0.0082431629
 C          0.9228004598       -2.2962443513        0.7885625503
 C          1.9110556231       -1.5994041407        1.6717874804
 C          0.8932383726       -3.6716456897        0.7788384083
 C         -0.0257773206       -4.3859286371        0.0065344546
 C         -0.0563879745       -5.8800300130        0.0383484988
 C         -0.9243294971       -3.6609680462       -0.7764967830
 C         -0.9159635327       -2.2846834862       -0.8077638489
 C         -1.8759414710       -1.5737613416       -1.7098508965
 C          1.3288168030        0.8378048920       -0.0408327341
 C          1.5744622245        1.9248356627        0.8228403152
 C          0.5380514548        2.4170915085        1.7888259824
 C          2.8258656179        2.5146930767        0.8481885354
 C          3.8519358547        2.1033698568        0.0045035123
 C          5.1935714019        2.7695704785        0.0204630044
 C          3.5910498695        1.0645666092       -0.8817607492
 C          2.3531274977        0.4531669768       -0.9426441079
 C          2.1245930536       -0.6192062958       -1.9634719916
 C         -2.3503569943        0.4304156303        0.9290383905
 C         -2.1276577785       -0.6594223200        1.9315807256
 C         -3.5966386360        1.0260924425        0.8576767380
 H         -5.0988649236        3.8233871072       -0.0450069297
 H         -5.7075563095        2.4682988688       -0.9892154615
 H         -5.8191155094        2.4280349189        0.7727394434
 H         -2.9994112432        3.3489800152       -1.5004994547
 H          0.0582422767        1.6684842339       -2.1626159435
 H          0.1997399004        3.1227409409       -1.1929266516
 H         -0.9648355951        3.0708849457       -2.5157205752
 H          2.3582422270       -2.2989641679        2.3750193504
 H          2.7092193175       -1.1478623631        1.0822163208
 H          1.4309099263       -0.7945882829        2.2254145467
 H          1.5932261421       -4.2225620183        1.3934183718
 H         -0.5038963557       -6.2802868954       -0.8689714316
 H          0.9469357765       -6.2872356433        0.1499216764
 H         -0.6509928816       -6.2247119968        0.8870295509
 H         -1.6354526720       -4.2014156114       -1.3877174238
 H         -1.3688254233       -0.7888637669       -2.2682216422
 H         -2.3352084041       -2.2697022615       -2.4087779083
 H         -2.6672093230       -1.0930110623       -1.1339080537
 H         -0.1734094076        3.0803404389        1.2977995069
 H          1.0046576942        2.9666014359        2.6042915276
 H         -0.0269579065        1.5842446298        2.2015093842
 H          3.0115218988        3.3190469713        1.5476203467
 H          5.2308779684        3.5523122251        0.7742404820
 H          5.9761371943        2.0417162726        0.2355854481
 H          5.4128404530        3.2127636120       -0.9512206871
 H          4.3701614479        0.7461159468       -1.5617801166
 H          2.0715633873       -1.5986772852       -1.4871422452
 H          1.1809250106       -0.4650516808       -2.4847642631
 H          2.9318615316       -0.6366900261       -2.6927320253
 H         -2.0966550140       -1.6327412710        1.4400095956
 H         -2.9275697963       -0.6752701104        2.6689476652
 H         -1.1756929424       -0.5298899547        2.4438385634
 H         -4.3815219523        0.6805162512        1.5175860107
  61
        -75.79598223
 C         -5.1187617017        2.9135504439        0.0286430717
 C         -3.8213210588        2.1715935624        0.0363071106
 C         -2.7551330360        2.6027036521       -0.7597037621
 C         -1.5477903714        1.9457832626       -0.7784694811
 C         -0.4671141413        2.4419929527       -1.6889517863
 C         -1.3298523118        0.7842745259        0.0316984235
 B         -0.0092349351        0.0059162783        0.0071426939
 C          0.0625136763       -1.5542168275       -0.0188936794
 C          0.9379003605       -2.3078882519        0.7976795047
 C          1.9479866453       -1.6498419412        1.6895502870
 C          0.8185975933       -3.6823721483        0.8502856918
 C         -0.1106078372       -4.3761098043        0.0759973145
 C         -0.1754990130       -5.8715292985        0.1129996559
 C         -0.9330444827       -3.6407641660       -0.7679567051
 C         -0.8385035897       -2.2646412074       -0.8593419888
 C         -1.7108772170       -1.5453288011       -1.8409962321
 C          1.3845544615        0.7331415762       -0.0031185213
 C          1.5958915019        1.8171803328        0.8836103194
 C          0.5815833473        2.1745060505        1.9268710099
 C          2.7518461578        2.5695998481        0.7898265071
 C          3.7557933567        2.2581782841       -0.1196473022
 C          5.0175676825        3.0647446319       -0.1653237463
 C          3.5643231586        1.1627441401       -0.9537306461
 C          2.4192332827        0.3873171955       -0.8945484984
 C          2.2896930628       -0.7602970165       -1.8515221937
 C         -2.4253762020        0.3717862616        0.8602430955
 C         -2.2698971152       -0.7981171272        1.7804685233
 C         -3.6257853448        1.0469730788        0.8357680765
 H         -5.8720887418        2.3912272377        0.6134780325
 H         -4.9873386318        3.9125806253        0.4471347724
 H         -5.4853773639        3.0321168956       -0.9911102209
 H         -2.8975321221        3.4737237976       -1.3860472611
 H         -0.0253530398        1.6173161507       -2.2451527308
 H          0.3367984238        2.9099609842       -1.1208668572
 H         -0.8621215166        3.1739142524       -2.3904301428
 H          2.2523972988       -2.3259086006        2.4863533448
 H          2.8381905849       -1.3629191036        1.1307243002
 H          1.5372692759       -0.7448097113        2.1312576069
 H          1.4647876582       -4.2414478942        1.5140123050
 H          0.5396715354       -6.2987443503       -0.5925402345
 H          0.0717915967       -6.2445582372        1.1050981234
 H         -1.1678238482       -6.2237632233       -0.1605109112
 H         -1.6450353127       -4.1610880859       -1.3950003238
 H         -2.1574346667       -2.2444224288       -2.5451228016
 H         -2.5150950192       -1.0174584302       -1.3265113326
 H         -1.1422756592       -0.7993261748       -2.3942221692
 H          0.2546587205        1.2891549863        2.4702662081
 H         -0.3041025677        2.6140175284        1.4674117865
 H          0.9916765998        2.8913315940        2.6350902062
 H          2.8921161322        3.4059861942        1.4617696531
 H          5.5829458490        2.9401436869        0.7589479948
 H          5.6464816336        2.7565124816       -0.9970094437
 H          4.7895252903        4.1247310464       -0.2729880088
 H          4.3318593254        0.9086004410       -1.6727115997
 H          1.2699947643       -0.8376433626       -2.2218664727
 H          2.9644215159       -0.6330044186       -2.6960705294
 H          2.5314224844       -1.7050242444       -1.3652483735
 H         -1.3209869229       -0.7457417691        2.3113967702
 H         -2.2692791817       -1.7349983183        1.2220219881
 H         -3.0829443502       -0.8307837287        2.5028487467
 H         -4.4373919429        0.7068859935        1.4658682369
  61
        -75.79543448
 C         -4.9843179201        3.1524601452        0.1332693222
 C         -3.7370281828        2.3227581785        0.0800503975
 C         -2.7299751148        2.5853106593       -0.8358585660
 C         -1.5810483535        1.8131602367       -0.8962633730
 C         -0.5635758628        2.1221661442       -1.9527249882
 C         -1.3938268868        0.7525659369        0.0156289617
 B         -0.0157368940       -0.0248083042        0.0086971332
 C         -0.0859406966       -1.5747911621        0.0356240650
 C          0.8600441926       -2.2849492670        0.8428367105
 C          1.7035979185       -1.5605717607        1.8436646078
 C          1.0106392630       -3.6497256367        0.6980004393
 C          0.1970479353       -4.3897241189       -0.1517523669
 C          0.3479354497       -5.8719109797       -0.2860385188
 C         -0.7955990567       -3.7097040515       -0.8660025302
 C         -0.9745121615       -2.3489484767       -0.7603631908
 C         -2.0676170504       -1.7051618689       -1.5565139012
 C          1.3032886034        0.7652962870       -0.0136760160
 C          1.5252155796        1.9196400588        0.7997678479
 C          0.4512785246        2.4158092876        1.7187063362
 C          2.7387053726        2.5665159868        0.7888135109
 C          3.7993391656        2.1398734305       -0.0168791561
 C          5.0994587934        2.8779122785       -0.0070824749
 C          3.5966085000        1.0244168727       -0.8243738727
 C          2.3897597337        0.3581800720       -0.8542361926
 C          2.2259474179       -0.8021487657       -1.7842140377
 C         -2.4248362249        0.4617408058        0.9227834111
 C         -2.3279185458       -0.6269301345        1.9523228716
 C         -3.5612948209        1.2553596854        0.9515392846
 H         -5.8688365111        2.5174730539        0.1556863756
 H         -4.9913869898        3.7642671368        1.0362358216
 H         -5.0491712031        3.8127973202       -0.7282083540
 H         -2.8535751414        3.3959082931       -1.5418643393
 H         -0.9679560282        2.8148019441       -2.6880502876
 H         -0.2455754503        1.2138299781       -2.4623638972
 H          0.3248952124        2.5728905022       -1.5102412172
 H          1.1059583644       -0.8434245908        2.4043774563
 H          2.1664647196       -2.2603666625        2.5367290615
 H          2.4958705350       -0.9983786944        1.3462184993
 H          1.7562165450       -4.1614826951        1.2924726590
 H          0.9565473052       -6.2770824158        0.5191497766
 H         -0.6240551960       -6.3631152492       -0.2756126656
 H          0.8309981614       -6.1151886350       -1.2343315522
 H         -1.4455443484       -4.2786540761       -1.5173362656
 H         -2.9035612894       -1.4327604815       -0.9133854912
 H         -1.7123469062       -0.7913954550       -2.0281478002
 H         -2.4332802993       -2.3830106972       -2.3242712050
 H          0.8621975533        3.1120079631        2.4471060669
 H         -0.0163495202        1.5848275595        2.2429647169
 H         -0.3331273137        2.9268583526        1.1606106777
 H          2.8879542336        3.4291381371        1.4249806642
 H          5.8142022206        2.4211930434       -0.6874840778
 H          4.9508245622        3.9168792847       -0.3033520951
 H          5.5266068661        2.8818022165        0.9963935242
 H          4.4036590782        0.6855382853       -1.4608880924
 H          2.2111660544       -1.7416783509       -1.2293552637
 H          1.2809111489       -0.7371904905       -2.3210737545
 H          3.0432664664       -0.8409495274       -2.5016193863
 H         -3.2297023734       -1.2383885369        1.9496590321
 H         -2.2269277278       -0.1909699563        2.9480133061
 H         -1.4730202024       -1.2707829962        1.7653347156
 H         -4.3292445887        1.0382200464        1.6820992097
  61
        -75.79535153
 C         -5.2761793286        2.6050994796       -0.2032048330
 C         -3.9070162889        2.0148772234       -0.0866168486
 C         -2.8431749317        2.5196796881       -0.8421464969
 C         -1.5706143934        2.0026497057       -0.7540430485
 C         -0.4855538377        2.6131877972       -1.5861665923
 C         -1.3178244238        0.8661475130        0.0652574159
 B         -0.0149126791        0.0307340793        0.0207430528
 C          0.0164413521       -1.5075031092        0.0112302801
 C          0.9320920046       -2.2711066274        0.7978342076
 C          1.9351601749       -1.5866088801        1.6745693641
 C          0.8804095762       -3.6476439917        0.8043225590
 C         -0.0453984763       -4.3559680224        0.0380272085
 C         -0.0853567969       -5.8506326837        0.0413891419
 C         -0.9368164108       -3.6255985560       -0.7483448138
 C         -0.9069969589       -2.2500665148       -0.7952978500
 C         -1.8599179715       -1.5365200890       -1.7023522645
 C          1.3543897041        0.8276284721       -0.0226773530
 C          1.6425401432        1.8708447888        0.8707375900
 C          0.6827294484        2.3122427477        1.9372555868
 C          2.8943850045        2.4663979975        0.8516493898
 C          3.8797061775        2.0797734690       -0.0481489846
 C          5.2124477809        2.7664498121       -0.0634494441
 C          3.5785413798        1.0683184811       -0.9460111142
 C          2.3368705001        0.4507873503       -0.9587847828
 C          2.0686315240       -0.5978339511       -1.9960353850
 C         -2.3837459598        0.4218733503        0.9145018734
 C         -2.1429548895       -0.6427033173        1.9369343323
 C         -3.6453083555        0.9653899437        0.7883729866
 H         -5.8483710759        2.4464970053        0.7085624225
 H         -5.2241651742        3.6727018402       -0.4084703192
 H         -5.8172398216        2.1333072036       -1.0262492151
 H         -3.0305422351        3.3492028902       -1.5107717648
 H          0.1138620217        1.8406301334       -2.0630776734
 H          0.1861511088        3.2067735571       -0.9669484746
 H         -0.9076536789        3.2607386801       -2.3518703344
 H          2.3477792461       -2.2836351975        2.4013064988
 H          2.7568609011       -1.1805530724        1.0848333052
 H          1.4745079055       -0.7531101755        2.2008011105
 H          1.5765309832       -4.1997907076        1.4220479942
 H          0.7459175470       -6.2630410224        0.6081996184
 H         -1.0166085267       -6.2037042407        0.4867764291
 H         -0.0420420014       -6.2374320517       -0.9767804602
 H         -1.6545442711       -4.1626939702       -1.3547011656
 H         -2.6581555122       -1.0647666491       -1.1274577277
 H         -1.3536833872       -0.7450080799       -2.2515025688
 H         -2.3117390601       -2.2297126187       -2.4087313903
 H          0.8777427152        1.7660692850        2.8624138564
 H         -0.3463518248        2.1240205660        1.6441195421
 H          0.8013343461        3.3734027793        2.1472526202
 H          3.1130427983        3.2454525463        1.5698217000
 H          5.9488793125        2.1718938058       -0.5988577821
 H          5.1327537033        3.7358013288       -0.5574361477
 H          5.5685559732        2.9378224212        0.9509547111
 H          4.3200544266        0.7667848527       -1.6738497350
 H          1.0988669748       -0.4393234757       -2.4651896853
 H          2.8378060554       -0.5853839072       -2.7656211137
 H          2.0522517380       -1.5901647968       -1.5450993785
 H         -1.2138997300       -0.4554621035        2.4729904779
 H         -2.0470995536       -1.6200148703        1.4610324998
 H         -2.9650941068       -0.6883462052        2.6481854589
 H         -4.4449575466        0.5897019684        1.4134259559
  61
        -75.79494078
 C         -4.8364015830        3.2316677846        0.2760327183
 C         -3.6406984345        2.3410636111        0.1589130761
 C         -2.6137298283        2.6403667209       -0.7329781397
 C         -1.4965756238        1.8408520346       -0.8475122642
 C         -0.4504739361        2.1939689100       -1.8571517172
 C         -1.3257348791        0.7025891044        0.0004348838
 B          0.0248408369       -0.0491121821        0.0044260651
 C          0.0139446533       -1.6324576444       -0.0049826443
 C          0.8165258640       -2.3820107566        0.8694497467
 C          1.6976432283       -1.7554277954        1.9110228135
 C          0.7538181147       -3.7687006503        0.8477519334
 C         -0.0799127717       -4.4524700603       -0.0233352794
 C         -0.1089636966       -5.9515009593       -0.0519806678
 C         -0.8635930673       -3.7054582522       -0.8914684302
 C         -0.8280590504       -2.3207975613       -0.9003907236
 C         -1.6586346952       -1.5923625622       -1.9148635476
 C          1.3811319284        0.6873841364        0.0362171368
 C          1.5061846823        1.8622636537        0.8533555197
 C          0.4715497952        2.1813451953        1.8848369240
 C          2.5726644145        2.7186292912        0.6829502501
 C          3.6082026321        2.4332195034       -0.2021081576
 C          4.7604676312        3.3693081116       -0.3777988911
 C          3.5497386362        1.2284532686       -0.9141466495
 C          2.4985501047        0.3515862892       -0.7854294942
 C          2.5128041982       -0.9203202132       -1.5740547308
 C         -2.4099370349        0.3716588449        0.8613599941
 C         -2.3417853266       -0.8364100182        1.7443565835
 C         -3.5144592095        1.1921420259        0.9415536067
 H         -5.1027434482        3.6544113380       -0.6910501399
 H         -5.6912024518        2.6901729883        0.6749802904
 H         -4.6168734934        4.0609550003        0.9517510099
 H         -2.7083219693        3.5124314295       -1.3667332463
 H         -0.8381591439        2.9044881231       -2.5842631961
 H         -0.0975082529        1.3054813327       -2.3772157212
 H          0.4148496241        2.6427718141       -1.3671044205
 H          2.6455797152       -2.2859985245        1.9835263061
 H          1.8972894123       -0.7121633867        1.6809455635
 H          1.2141925171       -1.8058352745        2.8886339447
 H          1.3630790468       -4.3262323725        1.5468326846
 H         -1.0894635813       -6.3140325718       -0.3534798356
 H          0.6237347048       -6.3283310152       -0.7675443572
 H          0.1337694942       -6.3626822727        0.9255680874
 H         -1.5042805544       -4.2180791712       -1.5967385488
 H         -2.4425427785       -1.0103986232       -1.4324686418
 H         -1.0437032094       -0.8986610168       -2.4870991071
 H         -2.1260973108       -2.2921603465       -2.6044346798
 H         -0.4255832263        2.5890394340        1.4159574557
 H          0.8483040692        2.9162039522        2.5937332100
 H          0.1736928619        1.2827927159        2.4226462671
 H          2.6241926147        3.6203527809        1.2792126718
 H          4.6239562981        3.9620730190       -1.2848318450
 H          4.8388288032        4.0541731266        0.4637391954
 H          5.6962460963        2.8221368116       -0.4785680085
 H          4.3635736257        0.9842614192       -1.5837631330
 H          2.7178384025       -1.7717358199       -0.9256869828
 H          1.5433420651       -1.0960962954       -2.0358202951
 H          3.2775068093       -0.8852729454       -2.3471237130
 H         -3.0658737026       -0.7624922856        2.5534116692
 H         -1.3444929935       -0.9465936393        2.1641314805
 H         -2.5543255515       -1.7427517406        1.1768347601
 H         -4.3086033872        0.9439557553        1.6333057104
