  51
  -92.3703128840000       0.314655278062699      !
 Cl        -0.2267415998       -3.8759144426        1.8680284935
 C         -0.1584005751       -2.3175459805        1.1457761334
 N         -1.3160076456       -1.8000215860        0.8121596536
 C         -1.3329562065       -0.5163319036        0.2909478686
 N         -2.5900496108       -0.0027135571        0.0376965930
 C         -3.6200432209       -0.6960745669       -0.5674183423
 C         -3.6500971366       -2.0103527664       -1.0100979026
 C         -4.8155300365       -2.4620715068       -1.6045735196
 C         -5.9178306854       -1.6244011469       -1.7637281679
 C         -5.8909703379       -0.3090413754       -1.3265635466
 C         -4.7366313587        0.1655701209       -0.7248604314
 C         -4.3582543277        1.4305419011       -0.1581105774
 C         -5.0148405900        2.6392162553        0.0100224537
 C         -4.3626504107        3.6618063794        0.6793804718
 C         -3.0835267122        3.4797059374        1.2031480725
 C         -2.4044078562        2.2863025434        1.0375699103
 C         -3.0312543957        1.2728825257        0.3245933393
 C         -0.1548863651        0.1508620960       -0.0215971704
 Cl        -0.1867593756        1.6103377180       -0.9643248271
 C          1.0840550112       -0.4136071008        0.2872313216
 N          2.2909153511        0.1762639346       -0.0689155062
 C          3.2533084433       -0.3977663171       -0.8718023831
 C          3.2370646748       -1.6263265739       -1.5166446566
 C          4.3397044812       -1.9659539837       -2.2782202937
 C          5.4279093802       -1.1035520986       -2.4009939604
 C          5.4387447869        0.1327932068       -1.7772655201
 C          4.3423984687        0.4986466704       -1.0119579965
 C          3.9995900790        1.6738824407       -0.2583685291
 C          4.6395881554        2.8781509497       -0.0118082635
 C          4.0153011033        3.8064923449        0.8051810445
 C          2.7766021117        3.5404325407        1.3863922901
 C          2.1161032562        2.3490771720        1.1517482803
 C          2.7250534904        1.4251519721        0.3129032636
 C          1.0662346652       -1.7018789918        0.9656941489
 Cl         2.5229395726       -2.3290381567        1.6179088848
 H         -2.7945983240       -2.6518331436       -0.8769487761
 H         -4.8700735189       -3.4803613754       -1.9574670280
 H         -6.8085947508       -2.0083555266       -2.2386041023
 H         -6.7500561012        0.3324258725       -1.4517136159
 H         -6.0181741817        2.7749544078       -0.3636412735
 H         -4.8582725967        4.6109347940        0.8171919693
 H         -2.6164502565        4.2831187303        1.7519464700
 H         -1.4262680695        2.1437774396        1.4682113315
 H          2.3906466208       -2.2898957555       -1.4287455481
 H          4.3570602780       -2.9155320850       -2.7905815600
 H          6.2736518691       -1.4051151300       -3.0006232383
 H          6.2810139045        0.7992882011       -1.8848977369
 H          5.6061797743        3.0849994124       -0.4453179478
 H          4.4975340546        4.7520130020        1.0035697454
 H          2.3257573870        4.2790387334        2.0318095250
 H          1.1646053662        2.1376366336        1.6141632633
  51
  -92.3697646110000       0.176143327406845      !
 Cl        -0.2126132143       -3.8554986485        2.0164933812
 C         -0.1477958658       -2.3001443261        1.2883523420
 N         -1.3083494150       -1.7874672887        0.9471708728
 C         -1.3271598855       -0.5044397563        0.4298749237
 N         -2.5802905291       -0.0122599934        0.1101406058
 C         -3.5205149796       -0.6912965345       -0.6389123296
 C         -3.4662407663       -1.9804502023       -1.1475683902
 C         -4.5384074543       -2.4165970059       -1.9066750004
 C         -5.6301134862       -1.5880532888       -2.1572771193
 C         -5.6886674921       -0.2993141205       -1.6485883310
 C         -4.6282810650        0.1597333383       -0.8837843206
 C         -4.3410872090        1.4023725932       -0.2196407708
 C         -5.0326287697        2.5939375931       -0.0727769332
 C         -4.4700170824        3.5969898892        0.7000052366
 C         -3.2451824904        3.4144482350        1.3406303486
 C         -2.5312678818        2.2384358151        1.2003635462
 C         -3.0704677836        1.2433733246        0.3952872086
 C         -0.1563703067        0.1824502553        0.1464234945
 Cl        -0.1989022520        1.6725242205       -0.7446742644
 C          1.0871358167       -0.3836610369        0.4438144727
 N          2.2855296336        0.1726715243        0.0120102683
 C          3.1510294391       -0.4203437563       -0.8835544834
 C          3.0528726846       -1.6559301079       -1.5068802792
 C          4.0568340174       -2.0112041852       -2.3890844049
 C          5.1270979213       -1.1571413211       -2.6476581530
 C          5.2206302440        0.0836707372       -2.0387627154
 C          4.2240267728        0.4650359530       -1.1538523553
 C          3.9734007736        1.6525852806       -0.3827932185
 C          4.6412200146        2.8564340684       -0.2263434633
 C          4.1107867528        3.8020286216        0.6360770081
 C          2.9384278679        3.5545621671        1.3491612837
 C          2.2502597513        2.3647276455        1.2059961469
 C          2.7648445557        1.4222894448        0.3249059268
 C          1.0725530888       -1.6803672414        1.1065336130
 Cl         2.5357347759       -2.3011808637        1.7506089741
 H         -2.6180309106       -2.6134867356       -0.9441524725
 H         -4.5263425282       -3.4146014406       -2.3172086959
 H         -6.4457412240       -1.9586884686       -2.7600644924
 H         -6.5402114734        0.3340797016       -1.8455633620
 H         -5.9940761878        2.7323583014       -0.5432097282
 H         -4.9953783871        4.5317344134        0.8249123904
 H         -2.8496175228        4.2041899473        1.9607683881
 H         -1.5936686242        2.0924981450        1.7133619575
 H          2.2179178386       -2.3118737339       -1.3144011875
 H          4.0074374745       -2.9654084609       -2.8909172425
 H          5.8929708088       -1.4688075244       -3.3419559335
 H          6.0488839511        0.7423730270       -2.2510871409
 H          5.5576710229        3.0498897331       -0.7628228108
 H          4.6175932350        4.7461680094        0.7680482319
 H          2.5638454157        4.3063038667        2.0270710719
 H          1.3487496575        2.1675934769        1.7652613963
  51
  -92.3696228943000       0.151613442936532      !
 Cl        -0.2785767872       -3.8562130510        1.9081343786
 C         -0.1761061100       -2.3237063215        1.1382284378
 N         -1.3289336639       -1.7488541427        0.8772403913
 C         -1.3291418304       -0.5046010631        0.2690607085
 N         -2.5813124021        0.0238394371        0.0291459854
 C         -3.6753218727       -0.7070580405       -0.4002894072
 C         -3.7899786068       -2.0710450795       -0.6279884910
 C         -5.0164007846       -2.5543367083       -1.0517526054
 C         -6.0973949076       -1.7003350645       -1.2613086574
 C         -5.9862897418       -0.3354417316       -1.0453651358
 C         -4.7706652396        0.1707743666       -0.6131454394
 C         -4.3134727127        1.4868323195       -0.2673905600
 C         -4.9190151220        2.7336102363       -0.2503494468
 C         -4.1984699194        3.8156639331        0.2274591643
 C         -2.9061474697        3.6546582001        0.7252976169
 C         -2.2797203369        2.4210960087        0.7108299629
 C         -2.9661753086        1.3443880057        0.1640752397
 C         -0.1392638416        0.0954240027       -0.1236450828
 Cl        -0.1169161290        1.4940290965       -1.1531941227
 C          1.0914923506       -0.5001875767        0.1734618890
 N          2.2989105235        0.1326077906       -0.1070619237
 C          3.2953108278       -0.3212446882       -0.9401447877
 C          3.3305544607       -1.4685593079       -1.7205972429
 C          4.4581089669       -1.6859088248       -2.4905628555
 C          5.5227648689       -0.7861299241       -2.4852157008
 C          5.4857335637        0.3673494446       -1.7190649827
 C          4.3631006758        0.6121721264       -0.9441318299
 C          3.9713721357        1.6821857680       -0.0665896080
 C          4.5733313319        2.8601354206        0.3477456934
 C          3.9014675259        3.6662286734        1.2522644588
 C          2.6505025533        3.3078090815        1.7513127879
 C          2.0271476643        2.1415481550        1.3484647273
 C          2.6891049894        1.3392332578        0.4299263394
 C          1.0611730980       -1.7812437408        0.8554935718
 Cl         2.5312405155       -2.5087111621        1.3531357660
 H         -2.9521099317       -2.7262388660       -0.4573456762
 H         -5.1370003531       -3.6125796397       -1.2248261619
 H         -7.0384545874       -2.1112357361       -1.5952457662
 H         -6.8291815588        0.3200102972       -1.2034331582
 H         -5.9345158611        2.8540344558       -0.5953737782
 H         -4.6506182655        4.7959267242        0.2399781689
 H         -2.3861612065        4.5062834047        1.1363322345
 H         -1.2947311145        2.3050223258        1.1327039904
 H          2.5034784005       -2.1616543569       -1.7261257455
 H          4.5153403236       -2.5680812870       -3.1098441620
 H          6.3894348420       -0.9922717549       -3.0953586909
 H          6.3106142817        1.0635454667       -1.7267737601
 H          5.5486628677        3.1385124430       -0.0214442093
 H          4.3574370664        4.5856116268        1.5877392460
 H          2.1625970015        3.9499946467        2.4688762812
 H          1.0661908853        1.8520084456        1.7459858355
  51
  -92.3695325051000       0.137783657786975      !
 Cl        -0.2369635214       -1.2205405143        4.1467087829
 C         -0.1736562572       -0.7477917330        2.4952282672
 N         -1.3223449634       -0.4280436527        1.9534247311
 C         -1.3356361237       -0.1428817073        0.5980007658
 N         -2.5862443876        0.0006298066        0.0264879113
 C         -2.9995626708       -0.5777826181       -1.1556119090
 C         -2.3497945042       -1.5099238014       -1.9532947508
 C         -3.0028083126       -1.9614627615       -3.0853684438
 C         -4.2762224240       -1.5005688043       -3.4155975546
 C         -4.9462900317       -0.5994547328       -2.6039058841
 C         -4.3157527708       -0.1410075319       -1.4582386686
 C         -4.7127348902        0.7226887668       -0.3790358088
 C         -5.8619667993        1.4441067737       -0.0999414297
 C         -5.9058804897        2.1954213022        1.0646571770
 C         -4.8271322834        2.2285253926        1.9463406479
 C         -3.6677897736        1.5177362480        1.6895618112
 C         -3.6195556237        0.7661711618        0.5244787432
 C         -0.1595397796        0.0306199303       -0.1211860005
 Cl        -0.2145274528        0.7502369450       -1.7033403385
 C          1.0770612887       -0.2300879427        0.4693256132
 N          2.2889501328        0.0296217865       -0.1556802566
 C          2.6806795110       -0.4385968321       -1.3897872225
 C          2.0332952124       -1.3220223243       -2.2443403727
 C          2.6455624878       -1.6245199866       -3.4458347268
 C          3.8798806380       -1.0738440747       -3.7872412460
 C          4.5524296866       -0.2288863862       -2.9199162961
 C          3.9597028994        0.0874118802       -1.7078912679
 C          4.3587642567        0.8894592217       -0.5842823235
 C          5.4926765837        1.6302767140       -0.2890488901
 C          5.5421546522        2.3148071541        0.9137213533
 C          4.4743768735        2.2794514615        1.8089545586
 C          3.3336601369        1.5464948230        1.5378090041
 C          3.2914644381        0.8344778658        0.3471846973
 C          1.0443323790       -0.7391309120        1.8361107703
 Cl         2.4584923639       -1.4441482457        2.5034709674
 H         -1.3755980136       -1.8877355553       -1.6857520874
 H         -2.5208184296       -2.6883069460       -3.7211595047
 H         -4.7531023731       -1.8684847460       -4.3115889242
 H         -5.9433983428       -0.2690442701       -2.8517303222
 H         -6.7029630750        1.4227659599       -0.7762501341
 H         -6.7925695445        2.7672709298        1.2942821944
 H         -4.8970514906        2.8237799071        2.8438622209
 H         -2.8296208114        1.5297938951        2.3669572966
 H          1.0879916051       -1.7663912811       -1.9759353625
 H          2.1596033906       -2.3008398358       -4.1325516034
 H          4.3231678673       -1.3243726994       -4.7392933073
 H          5.5197990858        0.1735368114       -3.1793869480
 H          6.3184623523        1.6699972289       -0.9830327360
 H          6.4192235215        2.8933041883        1.1623842492
 H          4.5382008483        2.8374734428        2.7306232965
 H          2.5038195030        1.5310341778        2.2272434433
  51
  -92.3690668963000       8.418189947472414E-002 !
 Cl        -0.1311119966       -2.4634635216        3.5050326763
 C         -0.1010665332       -1.4969480795        2.0849057614
 N         -1.2710970689       -1.0537459099        1.6846807665
 C         -1.3216041706       -0.3109635372        0.5168965775
 N         -2.5927949816        0.0491783030        0.1100068178
 C         -3.1080053037       -0.0343957855       -1.1676666044
 C         -2.5551988947       -0.5990736353       -2.3095210097
 C         -3.3032054119       -0.5723348670       -3.4733513480
 C         -4.5769702467       -0.0058902831       -3.5015433151
 C         -5.1560591638        0.5129677188       -2.3549013872
 C         -4.4305946966        0.4865459058       -1.1740974917
 C         -4.7284524523        0.8556712441        0.1816727291
 C         -5.8406212845        1.3959561384        0.8074705444
 C         -5.7878372137        1.6220415921        2.1746464232
 C         -4.6481617765        1.3148109492        2.9158234146
 C         -3.5233474099        0.7780071788        2.3132591192
 C         -3.5721077720        0.5474845722        0.9458355471
 C         -0.1618923208        0.0649840292       -0.1482598192
 Cl        -0.2132543154        1.1956802080       -1.4652953773
 C          1.0852562071       -0.3941976950        0.2789626171
 N          2.2826497244        0.0287376542       -0.2971658658
 C          3.1870558317       -0.7856879947       -0.9381392876
 C          3.1063933912       -2.1468160933       -1.2004545013
 C          4.1579059879       -2.7320665647       -1.8808820922
 C          5.2587032892       -1.9831936451       -2.2932087824
 C          5.3347941410       -0.6213032963       -2.0494446931
 C          4.2914313221       -0.0102176355       -1.3723101925
 C          4.0209831342        1.3423924699       -0.9646274908
 C          4.7046917185        2.5408060073       -1.0939326477
 C          4.1482938915        3.6840296780       -0.5430736379
 C          2.9335343879        3.6410031094        0.1381993664
 C          2.2284344968        2.4593092414        0.2742675777
 C          2.7723598020        1.3152524491       -0.2936377204
 C          1.0996763596       -1.2668763246        1.4428174989
 Cl         2.5922704711       -1.8754779863        2.0279923264
 H         -1.5816672875       -1.0629422297       -2.2895573315
 H         -2.8951887651       -1.0037475164       -4.3743980423
 H         -5.1275536772        0.0068508526       -4.4301757541
 H         -6.1558586988        0.9187756077       -2.3754123915
 H         -6.7283210379        1.6348358132        0.2417200601
 H         -6.6456207934        2.0442408434        2.6767728035
 H         -4.6421774847        1.5017712585        3.9786275070
 H         -2.6409706071        0.5280999196        2.8789533835
 H          2.2516064170       -2.7238642818       -0.8830311823
 H          4.1256895291       -3.7886627743       -2.0987026657
 H          6.0636018646       -2.4758474058       -2.8176657073
 H          6.1866727482       -0.0470801674       -2.3805433499
 H          5.6518371538        2.5804595919       -1.6099912824
 H          4.6673099712        4.6263579017       -0.6348433076
 H          2.5364129823        4.5473910447        0.5694843449
 H          1.2918225887        2.4236212638        0.8093322455
  51
  -92.3689818657000       7.693808328785948E-002 !
 Cl        -0.2353884680       -1.1388100008        4.1358521595
 C         -0.1777188646       -0.6913037217        2.4765799399
 N         -1.3188145918       -0.3384494815        1.9434325394
 C         -1.3360477567       -0.0874139358        0.5805818425
 N         -2.5898417477        0.0421323646        0.0115190856
 C         -3.0221555970       -0.6005584612       -1.1299735251
 C         -2.3778521166       -1.5636750025       -1.8944486402
 C         -3.0547031990       -2.0874594019       -2.9805951943
 C         -4.3442702690       -1.6657201527       -3.2990501873
 C         -5.0048218173       -0.7272184284       -2.5225095524
 C         -4.3500698637       -0.1954538284       -1.4232241152
 C         -4.7307308242        0.7241585074       -0.3843557294
 C         -5.8791569801        1.4519598747       -0.1197247222
 C         -5.9016214144        2.2694173485        1.0000841360
 C         -4.8021415641        2.3619177881        1.8514633097
 C         -3.6439812660        1.6446882771        1.6093432765
 C         -3.6175896460        0.8263758286        0.4890746955
 C         -0.1626863498        0.0541505788       -0.1505605654
 Cl        -0.2293807361        0.7559913136       -1.7412488625
 C          1.0718705843       -0.2227288179        0.4340584520
 N          2.2914344724        0.0360227139       -0.1754919110
 C          2.7000740327       -0.4072488398       -1.4137474856
 C          2.0555122233       -1.2530099270       -2.3081355605
 C          2.6886449784       -1.5327575613       -3.5044571725
 C          3.9423724051       -1.0011367284       -3.8018662414
 C          4.6137460665       -0.1997032041       -2.8933359966
 C          3.9992204464        0.0949378084       -1.6869114929
 C          4.3937061844        0.8514792843       -0.5306703984
 C          5.5429882589        1.5453253087       -0.1850094754
 C          5.5856541950        2.1872572242        1.0411634330
 C          4.4948774973        2.1589749627        1.9086010003
 C          3.3381302554        1.4737783043        1.5861328226
 C          3.3034600988        0.7988893950        0.3734973202
 C          1.0324899345       -0.7342095351        1.8020912545
 Cl         2.4170898429       -1.5172342278        2.4449954375
 H         -1.3900781236       -1.9104210056       -1.6343910929
 H         -2.5787376734       -2.8416232431       -3.5886121864
 H         -4.8410957742       -2.0931310090       -4.1569624685
 H         -6.0132988777       -0.4251819794       -2.7604352830
 H         -6.7355237480        1.3862509097       -0.7735419293
 H         -6.7873282711        2.8474123107        1.2177699159
 H         -4.8554966015        3.0087065858        2.7138119153
 H         -2.7900958769        1.7021760827        2.2643951910
 H          1.0967562264       -1.6878864292       -2.0752081497
 H          2.2041421999       -2.1781607741       -4.2212947946
 H          4.4014825710       -1.2324835244       -4.7512293521
 H          5.5958179987        0.1879752564       -3.1176320674
 H          6.3859665153        1.5810915352       -0.8582079660
 H          6.4745617999        2.7278500844        1.3298234514
 H          4.5531359487        2.6854148728        2.8490989853
 H          2.4910941658        1.4655349035        2.2545258829
  51
  -92.3687259312000       5.868431104436503E-002 !
 Cl        -0.2847953718       -4.0642296387        1.4121741825
 C         -0.1671996009       -2.4735723813        0.7887994093
 N         -1.3131499783       -1.8258834681        0.6139640379
 C         -1.3498557733       -0.5763585386        0.2303945593
 N         -2.5682094571        0.0233204091        0.0776868785
 C         -3.7792846350       -0.6381432872       -0.1070246478
 C         -4.0492238571       -1.9970025532       -0.1703288500
 C         -5.3600784098       -2.3856461827       -0.3876479762
 C         -6.3793542933       -1.4526083992       -0.5469060875
 C         -6.1136276498       -0.0949798116       -0.4943487096
 C         -4.8088335770        0.3148407480       -0.2744631999
 C         -4.1945895672        1.6129666221       -0.1631574298
 C         -4.6996934736        2.9017997685       -0.2143648406
 C         -3.8288445733        3.9617078575       -0.0308739287
 C         -2.4779354588        3.7386234178        0.2136747247
 C         -1.9559015719        2.4585159550        0.2730675184
 C         -2.8164167216        1.3919986231        0.0602462244
 C         -0.1244038419        0.1441152997       -0.1114517783
 Cl        -0.1231491155        0.7611231626       -1.7983889055
 C          1.1242509565       -0.5388358266        0.2186199732
 N          2.3107859946        0.1592056721        0.0381292305
 C          3.3919516799       -0.2155772026       -0.7330806758
 C          3.5547014242       -1.3306938032       -1.5428772737
 C          4.7417412749       -1.4486417137       -2.2427426348
 C          5.7362596977       -0.4788769755       -2.1547264177
 C          5.5606895632        0.6554559076       -1.3810465477
 C          4.3804386913        0.7952114053       -0.6685967648
 C          3.8526626291        1.8316139080        0.1808074164
 C          4.3352793893        3.0545508585        0.6189942301
 C          3.5401559282        3.8175513331        1.4572313565
 C          2.2905776936        3.3667368953        1.8736747190
 C          1.7932430162        2.1446708330        1.4590973682
 C          2.5722061775        1.3953350345        0.5905628188
 C          1.0914356854       -1.8525423012        0.6255469235
 Cl         2.5283613591       -2.6908871625        1.0901558973
 H         -3.2631648465       -2.7221949931       -0.0482385800
 H         -5.5946595791       -3.4381602510       -0.4364376860
 H         -7.3895489868       -1.7935933914       -0.7170499093
 H         -6.9022612431        0.6305992270       -0.6229148347
 H         -5.7510851009        3.0711934056       -0.3890353118
 H         -4.2016584695        4.9742411141       -0.0665751280
 H         -1.8202170884        4.5804907479        0.3683535106
 H         -0.9094217026        2.3010338918        0.4756980343
 H          2.7795934498       -2.0743670994       -1.6376910601
 H          4.8975343414       -2.3099881150       -2.8746078257
 H          6.6518691634       -0.6093396000       -2.7117784304
 H          6.3213541996        1.4196096314       -1.3373255888
 H          5.3101853465        3.4024437302        0.3130563583
 H          3.8979036598        4.7746376763        1.8058449439
 H          1.7033622291        3.9774135401        2.5429976870
 H          0.8412256520        1.7751433134        1.8084296081
