  53
  -84.8743469100000       0.269817660633204      !
 N         -5.6394125647       -3.2844772854       -0.4692295141
 C         -4.5676214187       -2.9313812557       -0.2671580491
 C         -3.2474267602       -2.4969603233       -0.0098999515
 C         -2.3558481970       -3.3307526379        0.6673558140
 C         -1.0745004550       -2.8908522844        0.9239632138
 C         -0.6545775837       -1.6261432629        0.5177140116
 N          0.6386219182       -1.1934481174        0.8173891717
 C          0.9660676005        0.0446730212        1.3444741338
 C          0.1489827043        0.9696049976        1.9746742063
 C          0.7296991395        2.1418047610        2.4197048292
 C          2.0935848667        2.3761752534        2.2700453303
 C          2.9212808043        1.4278838904        1.7015193833
 C          2.3588045824        0.2456484521        1.2418857796
 C          2.8986315736       -0.9398411269        0.6346832028
 C          4.1805157474       -1.3225296775        0.2664532298
 C          4.3572806778       -2.5530179479       -0.3350916548
 C          3.2744801123       -3.3927095960       -0.5796992776
 C          1.9881788812       -3.0322609378       -0.2238202976
 C          1.8086663965       -1.8051111588        0.3949050153
 C         -1.5444887263       -0.7976509410       -0.1986547132
 N         -1.1378080723        0.4574608804       -0.6624165272
 C          0.0451355245        0.7153547126       -1.3336012106
 C          0.9018140223       -0.1708148509       -1.9670960230
 C          2.0309617593        0.3477309568       -2.5712641945
 C          2.2873463108        1.7159842894       -2.5727040104
 C          1.4018845394        2.6073774501       -1.9993594603
 C          0.2639333930        2.1085760934       -1.3814089173
 C         -0.8558693456        2.7203715299       -0.7206763497
 C         -1.1986740328        4.0371566968       -0.4477224767
 C         -2.3694840174        4.2876486335        0.2402829956
 C         -3.1885761124        3.2447048549        0.6638599686
 C         -2.8664020821        1.9250872198        0.4067932448
 C         -1.7000354943        1.6702188125       -0.2972385621
 C         -2.8365335388       -1.2386742541       -0.4445000521
 H         -2.6785428413       -4.3065731876        0.9967201744
 H         -0.3864710717       -3.5136438088        1.4755326108
 H         -0.9042930709        0.7837934909        2.1220887594
 H          0.1104061753        2.8875961279        2.8949740401
 H          2.5098179522        3.3072181613        2.6242317514
 H          3.9839076378        1.5963136272        1.6180185131
 H          5.0178977734       -0.6650482582        0.4433604144
 H          5.3467069383       -2.8698754735       -0.6286931434
 H          3.4407054038       -4.3447282965       -1.0616827286
 H          1.1539451820       -3.6849671789       -0.4353113284
 H          0.6958414561       -1.2302330697       -1.9968646435
 H          2.7248919637       -0.3243723634       -3.0533714545
 H          3.1841955147        2.0830840128       -3.0486459073
 H          1.5849547260        3.6705877076       -2.0313814836
 H         -0.5575578143        4.8449188972       -0.7661046814
 H         -2.6558512700        5.3052627021        0.4600104118
 H         -4.0944018036        3.4696314622        1.2070644140
 H         -3.5027245674        1.1244517973        0.7546265606
 H         -3.5159420341       -0.6108728788       -1.0018657093
  53
  -84.8743459100000       0.269532291991743      !
 N         -5.3244584096       -3.6687130324       -0.9870714117
 C         -4.3677253056       -3.1746580991       -0.5935044344
 C         -3.1855819719       -2.5701686260       -0.1087907877
 C         -2.5983391947       -3.0283334099        1.0718708003
 C         -1.4373837775       -2.4399696486        1.5268080954
 C         -0.8401521331       -1.3934854501        0.8271797191
 N          0.3508399882       -0.8354797236        1.2952506961
 C          0.5222920817       -0.2258958719        2.5284868646
 C         -0.3307419430       -0.1889774692        3.6202833034
 C          0.0745962014        0.5272725885        4.7313275988
 C          1.2935959050        1.1989199851        4.7568721052
 C          2.1380134722        1.1800132073        3.6641996240
 C          1.7536500512        0.4655946251        2.5383605143
 C          2.3567953074        0.2529579053        1.2513127750
 C          3.5472565731        0.6671261201        0.6710996774
 C          3.8373981909        0.2483604211       -0.6127062925
 C          2.9797377554       -0.6055135490       -1.3004121787
 C          1.7922452255       -1.0356009887       -0.7398107203
 C          1.4660487766       -0.5618050664        0.5209292261
 C         -1.4534113172       -0.9067015939       -0.3468886238
 N         -0.9058640201        0.1731128501       -1.0468639650
 C         -0.4575647008        0.1361736937       -2.3575179464
 C         -0.6127937223       -0.8540118049       -3.3149242536
 C         -0.0317741015       -0.6502573899       -4.5526771537
 C          0.6931249203        0.5047583252       -4.8329324265
 C          0.8627545828        1.4867512698       -3.8769967256
 C          0.2863721042        1.3058950893       -2.6275974824
 C          0.2763475744        2.0884417848       -1.4224671337
 C          0.8228681733        3.3147226409       -1.0715836651
 C          0.5948435556        3.8001867597        0.2010912453
 C         -0.1985727019        3.0996874905        1.1053492392
 C         -0.7578043192        1.8799768499        0.7758842670
 C         -0.4774315774        1.3599590417       -0.4777357620
 C         -2.6145411357       -1.5093630421       -0.8084382644
 H         -3.0480624058       -3.8472057417        1.6122248902
 H         -0.9560491032       -2.8080411236        2.4202584117
 H         -1.2871664243       -0.6907375466        3.6066155270
 H         -0.5713083665        0.5689465967        5.5958480099
 H          1.5748066396        1.7475176506        5.6433353950
 H          3.0765356139        1.7127755289        3.6780359081
 H          4.2302918770        1.2999638595        1.2168778390
 H          4.7530493574        0.5688194269       -1.0865442527
 H          3.2456351432       -0.9426738001       -2.2909852070
 H          1.1482864045       -1.7220458591       -1.2685122083
 H         -1.1592763213       -1.7619574237       -3.1053138511
 H         -0.1405282453       -1.4058932185       -5.3164573267
 H          1.1327034395        0.6265502503       -5.8115850918
 H          1.4350265051        2.3766940978       -4.0900149827
 H          1.4100624384        3.8750081353       -1.7830448151
 H          1.0199841584        4.7473945942        0.4972756965
 H         -0.3849037503        3.5162448061        2.0838759176
 H         -1.3956605113        1.3579188708        1.4732380525
 H         -3.0917219722       -1.1309629945       -1.7003716191
  53
  -84.8735471500000       0.115751365912796      !
 N         -5.5809355468       -3.2825172716       -0.5390533105
 C         -4.5180932725       -2.9166713665       -0.3130789160
 C         -3.2083288717       -2.4712681811       -0.0246396830
 C         -2.3358969495       -3.2794674735        0.7065210822
 C         -1.0604467523       -2.8309355320        0.9719289513
 C         -0.6231501055       -1.5811665958        0.5325418813
 N          0.6869310560       -1.1882772364        0.8093494801
 C          1.1018599677        0.0420468404        1.2901284459
 C          0.3545043379        1.0650054990        1.8521886489
 C          1.0227306274        2.2098323080        2.2428142274
 C          2.4038783396        2.3240274818        2.1131858431
 C          3.1599700976        1.2792722824        1.6195439839
 C          2.5089259771        0.1241202610        1.2116660758
 C          2.9646634442       -1.1292315382        0.6765354612
 C          4.2206469133       -1.6349122942        0.3710477814
 C          4.3114042419       -2.9038302827       -0.1665032779
 C          3.1682786389       -3.6572023994       -0.4177949536
 C          1.9067973995       -3.1731479663       -0.1244951308
 C          1.8129129660       -1.9119617121        0.4437394290
 C         -1.5054359010       -0.7637234997       -0.2039453411
 N         -1.1364702920        0.5086574025       -0.6503039577
 C          0.0362023803        0.8539347343       -1.2985779753
 C          0.9911728040        0.0384891913       -1.8852421928
 C          2.0904881686        0.6467627707       -2.4604842449
 C          2.2239898403        2.0321436100       -2.4840199375
 C          1.2427310603        2.8496491793       -1.9592480346
 C          0.1344750698        2.2607176119       -1.3678511478
 C         -1.0495538575        2.7866838145       -0.7467317102
 C         -1.5115968456        4.0742366646       -0.5105670716
 C         -2.7131378222        4.2362274422        0.1505348421
 C         -3.4426668214        3.1346708186        0.5890532103
 C         -3.0014844737        1.8433407902        0.3674897024
 C         -1.8087097650        1.6756485166       -0.3192295647
 C         -2.7881502767       -1.2225501976       -0.4742607496
 H         -2.6666142735       -4.2422496177        1.0647535185
 H         -0.3857457692       -3.4357897247        1.5586908923
 H         -0.7130505686        0.9789005740        1.9861286602
 H          0.4583774265        3.0303575578        2.6598504332
 H          2.8893922072        3.2374680526        2.4221851208
 H          4.2345412210        1.3538064473        1.5509350967
 H          5.1052926609       -1.0427602664        0.5487390849
 H          5.2791733823       -3.3185474134       -0.4055499437
 H          3.2663495281       -4.6402509055       -0.8539702350
 H          1.0282942966       -3.7610484774       -0.3456227515
 H          0.8867748089       -1.0358844031       -1.8993852533
 H          2.8593942379        0.0313147900       -2.9029995134
 H          3.1010206182        2.4702588168       -2.9362530634
 H          1.3305054191        3.9244417850       -2.0054389913
 H         -0.9378125735        4.9282626891       -0.8366031878
 H         -3.0935938129        5.2289556097        0.3388636635
 H         -4.3730441083        3.2897417681        1.1148581851
 H         -3.5698058143        0.9994799039        0.7302159014
 H         -3.4548066845       -0.6104698405       -1.0636040664
  53
  -84.8733956100000       9.860141842665859E-002 !
 N         -5.3655818906       -3.5270491361       -0.9115690052
 C         -4.3816158903       -3.0678030229       -0.5441918538
 C         -3.1624731736       -2.5131611562       -0.0936572498
 C         -2.5168382392       -3.0448740657        1.0241127858
 C         -1.3350658671       -2.4821875061        1.4542406380
 C         -0.7641906260       -1.3937887128        0.7934957761
 N          0.4163734488       -0.8440086252        1.2939654440
 C          0.5727711689       -0.3874233501        2.5952531880
 C         -0.2958680687       -0.4716408962        3.6726902615
 C          0.1030243886        0.0930239966        4.8700970527
 C          1.3291831083        0.7398130631        4.9951034983
 C          2.1829295911        0.8554056049        3.9157902907
 C          1.8046917923        0.2935000860        2.7042443116
 C          2.4192420122        0.2422262116        1.4063373151
 C          3.6119148213        0.7355240639        0.8976339350
 C          3.9166368229        0.4898321182       -0.4265990445
 C          3.0711731997       -0.2745034046       -1.2255257528
 C          1.8834316668       -0.7846397408       -0.7366909574
 C          1.5391452261       -0.4786836261        0.5705338752
 C         -1.4133622570       -0.8611901317       -0.3393666414
 N         -0.8818002007        0.2101315524       -1.0633201010
 C         -0.5851847111        0.1652152240       -2.4168160952
 C         -0.8225822552       -0.8421491429       -3.3396544915
 C         -0.3936941615       -0.6415078462       -4.6384042793
 C          0.2656620685        0.5261268446       -5.0128122964
 C          0.5269453865        1.5206649754       -4.0911150905
 C          0.1040362964        1.3423762374       -2.7808912800
 C          0.2214702362        2.1346910425       -1.5881385400
 C          0.7911677022        3.3704029332       -1.3169517500
 C          0.7147540069        3.8650140457       -0.0300847229
 C          0.0491676718        3.1611789087        0.9696488549
 C         -0.5338158209        1.9333118918        0.7206546604
 C         -0.4073716513        1.4059580126       -0.5549099859
 C         -2.6065162072       -1.4290642191       -0.7669867205
 H         -2.9413054635       -3.8936385286        1.5380388809
 H         -0.8140237877       -2.9019655033        2.3013588616
 H         -1.2594793492       -0.9515700391        3.5871640449
 H         -0.5536641628        0.0315864169        5.7252142116
 H          1.6069453772        1.1635910965        5.9485014931
 H          3.1249319051        1.3743296032        4.0060668355
 H          4.2832772060        1.2982654046        1.5281793986
 H          4.8324869351        0.8776549694       -0.8465841089
 H          3.3479206627       -0.4786775408       -2.2489662076
 H          1.2542319555       -1.4024946745       -1.3589098332
 H         -1.3174302481       -1.7607921595       -3.0602507909
 H         -0.5736276219       -1.4089566091       -5.3764835395
 H          0.5815038926        0.6468613776       -6.0381909219
 H          1.0526828860        2.4187375004       -4.3774395009
 H          1.2811377311        3.9294488314       -2.0995681332
 H          1.1618662804        4.8193698456        0.2044661688
 H         -0.0180816406        3.5829569296        1.9613152111
 H         -1.0717117335        1.4123067304        1.4982225551
 H         -3.1191184010       -1.0026206049       -1.6166198109
  53
  -84.8733739200000       9.636406872460535E-002 !
 N         -5.5788638312       -3.2695628851       -0.5317396709
 C         -4.5132749957       -2.9095774203       -0.3098252161
 C         -3.2021727965       -2.4646905631       -0.0268939780
 C         -2.3269210526       -3.2752978002        0.6983104699
 C         -1.0505267167       -2.8277048136        0.9595824148
 C         -0.6137287438       -1.5766932106        0.5222455187
 N          0.6978705964       -1.1878515420        0.7958752427
 C          1.1194912633        0.0376013979        1.2833186710
 C          0.3769844094        1.0669508109        1.8401898574
 C          1.0531489991        2.2023432684        2.2445535130
 C          2.4370499521        2.3014981498        2.1332871100
 C          3.1873028775        1.2502813594        1.6445164217
 C          2.5283160787        0.1044321134        1.2232917085
 C          2.9777702265       -1.1539681512        0.6948244929
 C          4.2328851436       -1.6754136593        0.4130616395
 C          4.3182637972       -2.9481617200       -0.1162597750
 C          3.1707801451       -3.6885362457       -0.3854025459
 C          1.9100456348       -3.1879822129       -0.1171857366
 C          1.8208876573       -1.9241923872        0.4461790694
 C         -1.4994004751       -0.7561238688       -0.2064644764
 N         -1.1360841077        0.5192839733       -0.6486939878
 C          0.0291654346        0.8735981144       -1.3052244815
 C          0.9910661687        0.0662838516       -1.8919463653
 C          2.0769145359        0.6845102902       -2.4821704623
 C          2.1918795142        2.0713055354       -2.5186951053
 C          1.2053371446        2.8799380116       -1.9902077965
 C          0.1100943944        2.2810762053       -1.3846927621
 C         -1.0757324391        2.7975089843       -0.7591761973
 C         -1.5508737924        4.0814294234       -0.5290166462
 C         -2.7505465737        4.2343249243        0.1375424981
 C         -3.4648074027        3.1273997860        0.5876277481
 C         -3.0102103120        1.8396829725        0.3722946896
 C         -1.8197505150        1.6806254728       -0.3206876541
 C         -2.7832149303       -1.2146198359       -0.4734385156
 H         -2.6559103460       -4.2394559593        1.0543796907
 H         -0.3739121738       -3.4347396937        1.5418214802
 H         -0.6927333685        0.9923805928        1.9625045270
 H          0.4927929611        3.0271375430        2.6585535391
 H          2.9289507187        3.2079136121        2.4527113663
 H          4.2634604108        1.3128214146        1.5898198447
 H          5.1213234466       -1.0931918427        0.6041442250
 H          5.2852370677       -3.3758492437       -0.3349065767
 H          3.2646842347       -4.6747535147       -0.8152840928
 H          1.0291250495       -3.7666207864       -0.3524497558
 H          0.9016184096       -1.0095307552       -1.8968452520
 H          2.8494676893        0.0758228341       -2.9277013146
 H          3.0582140977        2.5172389382       -2.9837434178
 H          1.2786106086        3.9554405030       -2.0448865216
 H         -0.9882975111        4.9395221772       -0.8638001487
 H         -3.1406922989        5.2239234307        0.3226264743
 H         -4.3928139322        3.2754512919        1.1196723559
 H         -3.5666181728        0.9923476412        0.7452446936
 H         -3.4520153686       -0.6004538851       -1.0581840215
  53
  -84.8732139100000       8.135413356437221E-002 !
 N         -5.5595494130       -3.2858421793       -0.5606268731
 C         -4.5014796056       -2.9152809950       -0.3214152619
 C         -3.1957882701       -2.4635936670       -0.0245066071
 C         -2.3261154331       -3.2665689466        0.7158134723
 C         -1.0523312794       -2.8151733658        0.9829228608
 C         -0.6133018737       -1.5674078384        0.5383753501
 N          0.7007184630       -1.1835547304        0.8087095572
 C          1.1358872044        0.0386161522        1.2917436238
 C          0.4054699513        1.0802824801        1.8417316437
 C          1.0952694684        2.2094097619        2.2406678598
 C          2.4803884417        2.2913136179        2.1302932045
 C          3.2179846732        1.2297243827        1.6449310036
 C          2.5454139791        0.0901368953        1.2282921285
 C          2.9803879656       -1.1720189795        0.6967386370
 C          4.2284090227       -1.7033824218        0.4018582576
 C          4.2976350737       -2.9731065748       -0.1369459450
 C          3.1412982738       -3.7017102818       -0.4006643830
 C          1.8876268270       -3.1918653208       -0.1179255308
 C          1.8148789634       -1.9304283830        0.4531222214
 C         -1.4957549580       -0.7513072356       -0.1987248146
 N         -1.1347393215        0.5246303838       -0.6409652141
 C          0.0306776834        0.8851216738       -1.2937775817
 C          1.0035430444        0.0831893406       -1.8696280643
 C          2.0892712827        0.7075853255       -2.4534804603
 C          2.1924107194        2.0950719470       -2.4969925855
 C          1.1938974646        2.8978473901       -1.9822849045
 C          0.0994041182        2.2927890065       -1.3815516897
 C         -1.0952715298        2.8025030662       -0.7674597297
 C         -1.5856547369        4.0832352895       -0.5519672469
 C         -2.7914630077        4.2292516618        0.1050706254
 C         -3.4962561917        3.1189601212        0.5616691872
 C         -3.0266707421        1.8342975961        0.3606123737
 C         -1.8309495902        1.6817343256       -0.3247148116
 C         -2.7761783903       -1.2148872307       -0.4739010117
 H         -2.6572094708       -4.2276039514        1.0783093733
 H         -0.3787478062       -3.4167424079        1.5743652062
 H         -0.6655253034        1.0205349509        1.9614406236
 H          0.5449921745        3.0427397372        2.6511040347
 H          2.9832177177        3.1924185493        2.4477402124
 H          4.2947718799        1.2793115691        1.5891348466
 H          5.1237140060       -1.1306051110        0.5893857135
 H          5.2586002758       -3.4073413104       -0.3686819573
 H          3.2224034738       -4.6843254185       -0.8412548079
 H          0.9991686780       -3.7601171947       -0.3503894507
 H          0.9225411207       -0.9932104195       -1.8718273886
 H          2.8700894335        0.1029782729       -2.8900815090
 H          3.0590481936        2.5460018986       -2.9566002345
 H          1.2585469756        3.9736652781       -2.0417171247
 H         -1.0298563331        4.9445271181       -0.8898845020
 H         -3.1928661558        5.2163539134        0.2791733706
 H         -4.4290509089        3.2617781668        1.0866812588
 H         -3.5766279168        0.9842601218        0.7369715174
 H         -3.4423505329       -0.6045762632       -1.0656768645
  53
  -84.8730524800000       6.857906074662100E-002 !
 N         -5.5600341942       -3.2841705285       -0.5585824772
 C         -4.4995894600       -2.9138723864       -0.3286602252
 C         -3.1944766874       -2.4630739861       -0.0278909461
 C         -2.3286738661       -3.2620722709        0.7211569646
 C         -1.0554311325       -2.8101458818        0.9898608001
 C         -0.6128634401       -1.5654628128        0.5397202481
 N          0.7023959417       -1.1852586504        0.8094582126
 C          1.1436163624        0.0395810260        1.2804029131
 C          0.4189305183        1.0889999158        1.8231791110
 C          1.1137003610        2.2209952263        2.2050260375
 C          2.4983479035        2.2982179964        2.0859924619
 C          3.2307623422        1.2285728762        1.6105567654
 C          2.5530349311        0.0859186174        1.2111680502
 C          2.9820284933       -1.1832341535        0.6916069482
 C          4.2276116450       -1.7224384826        0.4005959115
 C          4.2913071911       -2.9979540642       -0.1250469601
 C          3.1317205506       -3.7242817739       -0.3805487914
 C          1.8804029288       -3.2065790929       -0.1015519767
 C          1.8131282440       -1.9394474561        0.4575161558
 C         -1.4929144743       -0.7516535018       -0.2029468539
 N         -1.1354112044        0.5254429142       -0.6449063580
 C          0.0324277515        0.8946295962       -1.2884860233
 C          1.0137468745        0.1003662299       -1.8606749422
 C          2.1019207156        0.7329898784       -2.4309902995
 C          2.1999069385        2.1211379889       -2.4644454102
 C          1.1931609264        2.9164988113       -1.9543457436
 C          0.0957095879        2.3030922702       -1.3677503540
 C         -1.1055299348        2.8043463829       -0.7595448147
 C         -1.6024984214        4.0818647271       -0.5398402881
 C         -2.8125342865        4.2193442087        0.1112393186
 C         -3.5151856499        3.1036258347        0.5577613328
 C         -3.0389112677        1.8220930024        0.3525890493
 C         -1.8388339170        1.6781156561       -0.3270227552
 C         -2.7719973589       -1.2170547987       -0.4817133458
 H         -2.6617933551       -4.2207133630        1.0881064460
 H         -0.3847475057       -3.4087819174        1.5875248287
 H         -0.6515530351        1.0334086892        1.9493652701
 H          0.5675824516        3.0607385139        2.6078708683
 H          3.0049759983        3.2023671542        2.3883525050
 H          4.3073460197        1.2746662319        1.5483183252
 H          5.1252169945       -1.1505916060        0.5797965239
 H          5.2502683864       -3.4383862467       -0.3534170882
 H          3.2084146853       -4.7124592984       -0.8093554729
 H          0.9897059970       -3.7741168670       -0.3268621576
 H          0.9388416015       -0.9764991398       -1.8673238364
 H          2.8905571402        0.1344542637       -2.8618277790
 H          3.0687839869        2.5785779084       -2.9132747888
 H          1.2527087558        3.9928838340       -2.0083465226
 H         -1.0486827396        4.9472284051       -0.8705022334
 H         -3.2197401022        5.2036875229        0.2873509151
 H         -4.4515053218        3.2395306229        1.0783160283
 H         -3.5867643270        0.9680887741        0.7228718702
 H         -3.4346749275       -0.6103505289       -1.0810262902
