  53
        -84.87434691
 N         -5.6394125647       -3.2844772854       -0.4692295141
 C         -4.5676214187       -2.9313812557       -0.2671580491
 C         -3.2474267602       -2.4969603233       -0.0098999515
 C         -2.3558481970       -3.3307526379        0.6673558140
 C         -1.0745004550       -2.8908522844        0.9239632138
 C         -0.6545775837       -1.6261432629        0.5177140116
 N          0.6386219182       -1.1934481174        0.8173891717
 C          0.9660676005        0.0446730212        1.3444741338
 C          0.1489827043        0.9696049976        1.9746742063
 C          0.7296991395        2.1418047610        2.4197048292
 C          2.0935848667        2.3761752534        2.2700453303
 C          2.9212808043        1.4278838904        1.7015193833
 C          2.3588045824        0.2456484521        1.2418857796
 C          2.8986315736       -0.9398411269        0.6346832028
 C          4.1805157474       -1.3225296775        0.2664532298
 C          4.3572806778       -2.5530179479       -0.3350916548
 C          3.2744801123       -3.3927095960       -0.5796992776
 C          1.9881788812       -3.0322609378       -0.2238202976
 C          1.8086663965       -1.8051111588        0.3949050153
 C         -1.5444887263       -0.7976509410       -0.1986547132
 N         -1.1378080723        0.4574608804       -0.6624165272
 C          0.0451355245        0.7153547126       -1.3336012106
 C          0.9018140223       -0.1708148509       -1.9670960230
 C          2.0309617593        0.3477309568       -2.5712641945
 C          2.2873463108        1.7159842894       -2.5727040104
 C          1.4018845394        2.6073774501       -1.9993594603
 C          0.2639333930        2.1085760934       -1.3814089173
 C         -0.8558693456        2.7203715299       -0.7206763497
 C         -1.1986740328        4.0371566968       -0.4477224767
 C         -2.3694840174        4.2876486335        0.2402829956
 C         -3.1885761124        3.2447048549        0.6638599686
 C         -2.8664020821        1.9250872198        0.4067932448
 C         -1.7000354943        1.6702188125       -0.2972385621
 C         -2.8365335388       -1.2386742541       -0.4445000521
 H         -2.6785428413       -4.3065731876        0.9967201744
 H         -0.3864710717       -3.5136438088        1.4755326108
 H         -0.9042930709        0.7837934909        2.1220887594
 H          0.1104061753        2.8875961279        2.8949740401
 H          2.5098179522        3.3072181613        2.6242317514
 H          3.9839076378        1.5963136272        1.6180185131
 H          5.0178977734       -0.6650482582        0.4433604144
 H          5.3467069383       -2.8698754735       -0.6286931434
 H          3.4407054038       -4.3447282965       -1.0616827286
 H          1.1539451820       -3.6849671789       -0.4353113284
 H          0.6958414561       -1.2302330697       -1.9968646435
 H          2.7248919637       -0.3243723634       -3.0533714545
 H          3.1841955147        2.0830840128       -3.0486459073
 H          1.5849547260        3.6705877076       -2.0313814836
 H         -0.5575578143        4.8449188972       -0.7661046814
 H         -2.6558512700        5.3052627021        0.4600104118
 H         -4.0944018036        3.4696314622        1.2070644140
 H         -3.5027245674        1.1244517973        0.7546265606
 H         -3.5159420341       -0.6108728788       -1.0018657093
