  94
       -148.22275179
 C          5.7439136963        1.6625164799        1.3281770505
 C          4.9498456983        0.4679856239        1.8845986937
 C          5.2918848396        0.2641167735        3.3745331042
 C          3.4643264257        0.7414564977        1.7859951806
 C          2.9327966110        1.8879957443        2.3590858534
 C          1.5745287552        2.1451060760        2.3567778309
 C          0.7064770522        1.2254910692        1.7884537163
 C          1.2023739204        0.0832671241        1.2037081906
 C          2.5827273499       -0.1668998506        1.1777593299
 N          3.0550252478       -1.3026570452        0.5604946431
 C          2.1156543311       -2.1758514280       -0.0628474956
 C          1.6245116381       -3.2805788754        0.6460005018
 C          0.6589744849       -4.0919244027        0.0477343081
 C          0.1667067390       -3.7947076424       -1.2015542846
 C          0.6786769751       -2.6996133849       -1.9106280631
 S         -0.2274341921       -2.0293783440       -3.2812965814
 O          0.6706386777       -1.3259797693       -4.1746943055
 O         -1.0770162110       -3.0530147040       -3.8508705119
 C         -1.1853963642       -0.8470442585       -2.3721536743
 C         -2.2048674897       -1.3108327295       -1.5357105661
 C         -2.7138204122       -0.4767556261       -0.5587469229
 N         -3.7295951487       -0.9347525757        0.2893226151
 C         -4.9108423420       -0.2851075508        0.5702888506
 C         -5.4025182133        0.9089815003        0.0630580956
 C         -6.6451907507        1.3344832425        0.4962326907
 C         -7.3886922709        0.5864445950        1.4058872413
 C         -6.9171637780       -0.6191261125        1.8949813183
 C         -5.6729733228       -1.0658812290        1.4741274516
 C         -4.8981123430       -2.2462896810        1.7422050727
 C         -5.1002803377       -3.3656115626        2.5366261724
 C         -4.1119081732       -4.3333853472        2.5790296361
 C         -2.9300410838       -4.1871172215        1.8567027014
 C         -2.7045651759       -3.0813971855        1.0559813049
 C         -3.7054868719       -2.1222381777        0.9875623006
 C         -2.1987149450        0.8177085272       -0.3776963589
 C         -1.1696718851        1.2720988436       -1.2188553072
 N         -0.6182755739        2.5390749603       -1.0062092094
 C          0.7318863193        2.8307647236       -0.9730300795
 C          1.8248150118        2.0186905468       -1.2325139657
 C          3.0887932563        2.5685036337       -1.1139681046
 C          3.2722208172        3.8925018238       -0.7265695271
 C          2.1891674918        4.7053900177       -0.4465982207
 C          0.9107873096        4.1775746809       -0.5717382527
 C         -0.4010341780        4.7228496741       -0.3732207728
 C         -0.8679931662        5.9801691313       -0.0134889735
 C         -2.2343317222        6.1891848676        0.0413107418
 C         -3.1283308773        5.1708523587       -0.2774827266
 C         -2.6837420255        3.9094562027       -0.6366265125
 C         -1.3159946988        3.6793148920       -0.6592279237
 C         -0.6777608699        0.4494297901       -2.2177985715
 C          1.6696606864       -1.8997654878       -1.3357303555
 C          4.3951371238       -1.6012462572        0.5017228470
 C          4.8116303338       -2.7455996768       -0.1936559206
 C          6.1439855334       -3.0835986720       -0.2571286219
 C          7.0882293487       -2.2863794550        0.3731820079
 C          6.6820062642       -1.1519327937        1.0525584601
 C          5.3469854753       -0.7809629734        1.1280444176
 H          5.5736545180        1.7556913458        0.2594734451
 H          5.4380821111        2.5881075974        1.8047149935
 H          6.8083422312        1.5314045200        1.4977521421
 H          4.7226018023       -0.5712395430        3.7774180464
 H          6.3497814225        0.0509984678        3.4998907313
 H          5.0475096514        1.1543764620        3.9470666910
 H          3.5901517811        2.6019968001        2.8294509314
 H          1.1946130894        3.0504735370        2.8038067633
 H         -0.3575831874        1.4009809627        1.7995501779
 H          0.5239971778       -0.6242474874        0.7561069597
 H          1.9899726323       -3.4882178515        1.6387846166
 H          0.2872864495       -4.9513241470        0.5853642365
 H         -0.6002401073       -4.3902706453       -1.6688550260
 H         -2.5958628455       -2.3020350717       -1.6893260522
 H         -4.8408217495        1.4746819657       -0.6630006268
 H         -7.0487020748        2.2610699217        0.1169261838
 H         -8.3537579481        0.9509687919        1.7235932966
 H         -7.5050861374       -1.2047552902        2.5849580534
 H         -6.0082891847       -3.4750933137        3.1094352859
 H         -4.2524896653       -5.2134424741        3.1882548781
 H         -2.1708101271       -4.9514194460        1.9247319428
 H         -1.7825106547       -2.9697853492        0.5079922813
 H         -2.5545659637        1.4253757354        0.4365470675
 H          1.7012938999        0.9882438013       -1.5125159364
 H          3.9479825532        1.9532887423       -1.3361017784
 H          4.2739418608        4.2873170393       -0.6448469917
 H          2.3300082551        5.7308944220       -0.1413261682
 H         -0.1757406393        6.7778862979        0.2081504339
 H         -2.6165847668        7.1598531121        0.3186004887
 H         -4.1891810647        5.3681731081       -0.2514865172
 H         -3.3838846344        3.1383364256       -0.9124826125
 H          0.0661911855        0.7863419677       -2.9179827614
 H          2.0624936523       -1.0729272376       -1.9031020049
 H          4.0720968170       -3.3591873293       -0.6817354762
 H          6.4475970151       -3.9679536337       -0.7956145441
 H          8.1347711052       -2.5452865922        0.3339463383
 H          7.4310743634       -0.5446391508        1.5361788136
