  112
       -169.60444154
 C        -11.7699390279        3.8516522752       -2.2131395294
 C        -10.5283250271        3.9356300549       -1.6042876251
 C        -10.0258156057        2.8665912532       -0.8888904647
 C        -10.7615130713        1.6864547019       -0.7798444894
 N        -10.2559132980        0.5971044610       -0.0613001389
 C        -11.1224072975       -0.1918555325        0.7038347101
 C        -10.9447952036       -1.5733904430        0.7759573823
 C        -11.8028316160       -2.3457493241        1.5339022112
 C        -12.8512793390       -1.7593238270        2.2238060971
 C        -13.0339658351       -0.3878591761        2.1527620452
 C        -12.1772998871        0.3941653647        1.4034231386
 C         -8.8927573403        0.3027368135       -0.1042893333
 C         -8.2359970252       -0.2052865724        1.0194660633
 C         -6.8905702937       -0.4930548813        0.9727634413
 C         -6.1393293466       -0.2633731166       -0.1845444655
 C         -4.7056388238       -0.5414403627       -0.2184753375
 C         -4.2285042643       -1.8423485934        0.0919574449
 C         -5.1081827028       -2.9067051455        0.3602978814
 C         -4.6428902457       -4.1456510776        0.7492312467
 C         -3.2788817351       -4.3550238669        0.9019137538
 C         -2.3883626137       -3.3457470615        0.5906056553
 C         -2.8262167696       -2.0999582441        0.1160062607
 C         -1.9020564265       -1.0764486568       -0.2591687527
 C         -0.4923799257       -1.3728264437       -0.3200970243
 C         -0.0580483390       -2.4726287597       -1.0844996627
 C          1.2685113553       -2.7264455712       -1.2928307699
 C          2.2665629005       -1.9196606944       -0.7022829821
 C          3.6387298427       -2.1654863917       -0.8925610326
 C          4.5903635037       -1.3741601324       -0.3108962027
 C          4.2336105196       -0.2834620751        0.5159579647
 C          5.1991734006        0.5508624376        1.1351904460
 C          6.6204262785        0.4714004667        0.8034347378
 C          7.5903257106        0.4659348563        1.8085665373
 C          8.9329828064        0.4203328192        1.5044657870
 C          9.3575022504        0.4018190172        0.1744680965
 N         10.7179014279        0.3620881200       -0.1399820854
 C         11.1566167394       -0.3663988250       -1.2508766149
 C         10.5529308081       -1.5792440589       -1.5834025813
 C         10.9849308399       -2.2928316702       -2.6838931123
 C         12.0262886964       -1.8176915515       -3.4641258667
 C         12.6322396395       -0.6159397713       -3.1357923335
 C         12.2021766326        0.1093631439       -2.0420688134
 C         11.6398522472        1.0587694534        0.6486265349
 C         12.9030003149        0.5229261764        0.9000822531
 C         13.8111687062        1.2169255809        1.6753682481
 C         13.4762104491        2.4467619257        2.2180078389
 C         12.2215618973        2.9815246159        1.9746321581
 C         11.3091001375        2.2993632524        1.1940114594
 C          8.3946694077        0.4297397524       -0.8367798034
 C          7.0537975667        0.4581311156       -0.5253826259
 C          4.7810057391        1.5055512974        2.0642679561
 C          3.4513321513        1.7041924911        2.3449327026
 C          2.4598642299        0.9460255024        1.6956365525
 C          1.0844811162        1.1350328104        1.9499496873
 C          0.1360357140        0.4015501773        1.2966032401
 C          0.4922921988       -0.5795139577        0.3458275190
 C          1.8685203345       -0.8487566054        0.1370045248
 C          2.8557094479       -0.0593062843        0.7791189303
 C         -2.3954083266        0.2135858730       -0.6339376883
 C         -1.5483760608        1.2040629214       -1.1531366861
 C         -2.0159275458        2.4626548747       -1.4716499156
 C         -3.3549616129        2.7742797956       -1.2724365311
 C         -4.2267241509        1.8017734574       -0.8315781832
 C         -3.7921995754        0.4903486935       -0.5644324836
 C         -6.8046324228        0.2471310307       -1.3040759344
 C         -8.1547493976        0.5133299429       -1.2719619379
 C        -12.0102088654        1.6064208678       -1.3964788478
 C        -12.5073555847        2.6840742132       -2.1027016927
 H        -12.1603628382        4.6902814369       -2.7691740295
 H         -9.9493437080        4.8441692728       -1.6797628451
 H         -9.0632129416        2.9390412030       -0.4043055147
 H        -10.1354466596       -2.0338092258        0.2286467386
 H        -11.6569262753       -3.4148715840        1.5788214133
 H        -13.5216539839       -2.3667851019        2.8123147044
 H        -13.8451819824        0.0784342154        2.6920504732
 H        -12.3148630673        1.4645593945        1.3576514956
 H         -8.7904296371       -0.3577464943        1.9340473723
 H         -6.3930557130       -0.8622067832        1.8577854687
 H         -6.1707935802       -2.7489763349        0.2550486245
 H         -5.3413746227       -4.9443771216        0.9514994370
 H         -2.9105528558       -5.3070289670        1.2545539381
 H         -1.3310272931       -3.5182892575        0.7221723169
 H         -0.8039293005       -3.0742605078       -1.5849057234
 H          1.5725424926       -3.5393625648       -1.9368244172
 H          3.9330076780       -3.0054365852       -1.5064269759
 H          5.6359757459       -1.6010424221       -0.4550130625
 H          7.2797032840        0.4606475912        2.8431707825
 H          9.6675886807        0.3897331262        2.2960355154
 H          9.7485726712       -1.9574490995       -0.9698227471
 H         10.5098756537       -3.2312483814       -2.9292574181
 H         12.3630826356       -2.3797576145       -4.3217640590
 H         13.4412700350       -0.2350156452       -3.7413918225
 H         12.6692138076        1.0514368881       -1.7947062335
 H         13.1629797548       -0.4406277955        0.4868578149
 H         14.7851949287        0.7899453899        1.8638440732
 H         14.1877878014        2.9845841340        2.8258942909
 H         11.9534691354        3.9421691163        2.3891582179
 H         10.3355690985        2.7234899867        0.9964149629
 H          8.7111625292        0.4418612918       -1.8696982466
 H          6.3243828505        0.5133533070       -1.3202072444
 H          5.5270149233        2.1257419226        2.5413751216
 H          3.1499989797        2.4597301531        3.0560915251
 H          0.7911197892        1.8773839177        2.6786124705
 H         -0.9103110710        0.5626574169        1.5098029906
 H         -0.5036894198        0.9788201730       -1.3024341274
 H         -1.3359549486        3.2059065453       -1.8605571017
 H         -3.7172027102        3.7715810450       -1.4747866047
 H         -5.2668851686        2.0502369826       -0.6853368211
 H         -6.2528190900        0.3971146976       -2.2206350318
 H         -8.6549313794        0.8809297974       -2.1561560207
 H        -12.5821786332        0.6932787556       -1.3207921629
 H        -13.4744269546        2.6082182299       -2.5775283297
