79
 energy: -122.169456223687 gnorm: 0.000035971792 xtb: 6.7.1 (edcfbbe)
C            0.82049422479396        2.97756681481715        3.22227392219834
C            1.58461747696539        1.74499704715809        2.84288180820613
C            1.74564716191829        0.70879626679470        3.76676940348141
C            2.44695773202129       -0.43893133424199        3.45822619186088
C            2.99563573213830       -0.56491005547592        2.18934623095155
C            3.81061737767287       -1.56086270711621        1.55093320835209
C            4.32502521498872       -2.78902822896889        1.94654453877516
C            5.09782020917194       -3.50463823452397        1.05517058231934
C            5.36602421681862       -3.03234274451353       -0.23440438110774
C            6.20697121348737       -3.85822123682260       -1.16262968757027
C            4.85479108369593       -1.81010886917175       -0.64214471303098
C            4.09045407452762       -1.07869657947328        0.25390513274302
N            3.46719878773021        0.14217292742430        0.07711868689384
C            3.55879534482584        0.93171049770376       -1.07161458395792
C            4.81449700617806        1.36946081415588       -1.48652959071622
C            4.95682042762235        2.16880443139980       -2.60458731258359
C            3.83722851865082        2.55255773403132       -3.32889491090133
C            2.58834601026798        2.10912437071588       -2.94587934361587
C            2.42846270468132        1.28433024832649       -1.82873356963145
C            1.11536958703532        0.75109537430612       -1.54539413425015
N            0.71358959142405        0.03355693933535       -0.53873501883635
N           -0.57330563691112       -0.27649754646381       -0.75163051980535
C           -0.91679492565590        0.25558992252474       -1.88647242864385
C           -2.16715785239634        0.10173510564142       -2.60095023948671
C           -2.15843232243938        0.14183697517087       -3.99524533688819
C           -3.30684198623462       -0.12769281707052       -4.71327542114908
C           -4.48006288607535       -0.44457041904777       -4.04437359989033
C           -4.51178355133281       -0.45305940244238       -2.66221434656320
C           -3.36650466433304       -0.16786100939378       -1.92381233966003
N           -3.43747546817786       -0.09716672988408       -0.53192339849197
C           -3.92522632836466       -1.07631834542670        0.31300783150679
C           -4.35965683187308       -2.35775538866419        0.01140793492125
C           -4.79354970350777       -3.17086805627146        1.04647497687178
C           -5.27742944288128       -4.56408247350825        0.77358369688540
C           -4.77888434203705       -2.69380188104921        2.36209541560051
C           -4.33185051234002       -1.42613649254034        2.67146492331320
C           -3.89696055336981       -0.60133488544510        1.64169157599730
C           -3.38070662225927        0.73821358561485        1.58727509099799
C           -3.17471626411917        1.73008607994257        2.53531292874476
C           -2.70622468924379        2.96186387306213        2.12058025375041
C           -2.43599968487699        3.23170094396939        0.77694317953769
C           -1.94264710777637        4.58416370981896        0.35174307336470
C           -2.63874821670769        2.24590598802517       -0.17888067909371
C           -3.09912136899625        1.00546789715375        0.22874498936955
O            0.11454876237640        0.92821382646841       -2.44970425746916
C            2.80536574024035        0.46715725258667        1.24521441821634
C            2.12008106611104        1.62513322428243        1.56943494179822
H            0.83955941799480        3.13163179185092        4.29860699797358
H            1.23351048542320        3.85625759098351        2.73102245377542
H           -0.21895962708888        2.87148440309019        2.91014136090417
H            1.31429046540262        0.81949102745655        4.75153517789857
H            2.57616822769210       -1.22084198531572        4.19202785072986
H            4.12094582536105       -3.17555298508669        2.93405387229981
H            5.50669431807493       -4.46018030193506        1.35153840194223
H            6.30772696460689       -3.37557208645162       -2.13153135891499
H            5.75853832416884       -4.84063542062485       -1.30705579782313
H            7.20119712094222       -4.00617791416277       -0.74184491942689
H            5.04624789761544       -1.43833580929134       -1.63894093317142
H            5.67768244881197        1.08106574202910       -0.90519691989947
H            5.93824173731705        2.50247879125970       -2.90523567409565
H            3.94010735111026        3.18848588861234       -4.19452159809225
H            1.71455450216782        2.38836900222888       -3.51599285894154
H           -1.23322733787135        0.36405872489033       -4.50667706303961
H           -3.28571857681245       -0.09974863961472       -5.79166552237142
H           -5.37713426895415       -0.66695055387516       -4.60177289910823
H           -5.43113971412864       -0.66154094111663       -2.13595043533910
H           -4.35118273078833       -2.71984336958704       -1.00648728024564
H           -4.65301393203039       -5.28879093688096        1.29522976171003
H           -5.25053715740217       -4.78542858256480       -0.29032971335667
H           -6.29901834972850       -4.68789794759049        1.13138567908633
H           -5.12191237334955       -3.34578206134780        3.15274147388568
H           -4.31601072764653       -1.08030080850835        3.69430507393776
H           -3.38636496406336        1.54503903814944        3.57785549493244
H           -2.55798945941465        3.74601053844445        2.84979817205968
H           -1.00173489502455        4.49362761378772       -0.19098775877000
H           -1.78681027846508        5.23037919634813        1.21152546997475
H           -2.66452060185943        5.05890346223737       -0.31289142752146
H           -2.44973919698736        2.45762282026717       -1.22310251562747
H            2.00426980148678        2.42231629939483        0.84830331133884
