79
 energy: -122.086419895945 gnorm: 0.000070178481 xtb: 6.7.1 (edcfbbe)
C            5.67359459834569       -0.85112259281006        3.20482879221516
C            4.76665499149049       -1.27168809645329        2.08742435727629
C            4.23919836152310       -2.56524828908446        2.07487123089055
C            3.39340551028975       -3.00266370838479        1.06919347935289
C            3.07079604475337       -2.12888831787441        0.04326471593555
C            2.24008409969902       -2.21684414537580       -1.12920860984260
C            1.46537240153609       -3.21718617564349       -1.69214617508811
C            0.79460476953930       -2.95078852767811       -2.87228520403517
C            0.88877083231449       -1.71061724629298       -3.51920194238850
C            0.14220381823988       -1.49387458159869       -4.80093583635376
C            1.65987784770474       -0.70412868208921       -2.96686874387989
C            2.31312974616627       -0.95194478010335       -1.76384308232809
N            3.14253155316336       -0.12946376138276       -1.04955802076912
C            3.36499716634059        1.23723811649517       -1.28758929302355
C            4.64653251564645        1.67023155922246       -1.57501490707579
C            4.91725972626687        3.01276789426491       -1.79594114676328
C            3.87998024186647        3.94367074565300       -1.71301781382825
C            2.60549304694127        3.54003658146813       -1.40897282911422
C            2.29974083702520        2.17820281253566       -1.17598104402644
C            1.00212024760109        1.80948307304874       -0.76477055133498
N            0.48946031854992        0.59347759430154       -0.63651499020855
N           -0.74597951769893        0.69895109320539       -0.23989334305947
C           -1.03770198532479        1.98645969780383       -0.08803240818695
C           -2.25806532782317        2.53582482468233        0.34466342880130
C           -2.50588500084175        3.92586432816907        0.25803554775854
C           -3.73111019128576        4.44774531282755        0.58201285126208
C           -4.77033433250870        3.61407685771080        1.00542918871116
C           -4.54628548438750        2.25084836650793        1.12979023084528
C           -3.31079046219012        1.70367485971452        0.83446236989032
N           -3.09226159817697        0.33238608682542        1.02296705213899
C           -3.75430824997018       -0.68104148620559        0.37851438464093
C           -4.79567165312235       -0.60264858265235       -0.54007445454595
C           -5.29975799066253       -1.77747987420453       -1.07170553741884
C           -6.42438601134787       -1.75228916342368       -2.06247465646305
C           -4.75158881284325       -3.00825909115628       -0.68496535511627
C           -3.70479060025021       -3.09547800505217        0.21492981044910
C           -3.19525972958574       -1.92707899250583        0.75875417360034
C           -2.14193265495386       -1.63000803317701        1.69300342560569
C           -1.24433122788534       -2.40175382783577        2.41311395687198
C           -0.35774229164218       -1.76759924589822        3.26628828356678
C           -0.35976521176969       -0.38152174481022        3.43580250817045
C            0.62171265566855        0.26214021837159        4.36895221847223
C           -1.25683917647444        0.40014172207112        2.71905727550985
C           -2.11694778520905       -0.22434820170341        1.83025769970652
O            0.04400522614777        2.76867148174103       -0.45353020287613
C            3.60897295762440       -0.82199204063238        0.05049150178382
C            4.44677935316638       -0.38648963352332        1.06520317530367
H            6.57683392553132       -1.46049697002032        3.20757138370637
H            5.95977820458680        0.19245248486902        3.10261884536568
H            5.17996610144152       -0.98602669328354        4.16630977655091
H            4.49936004201761       -3.23778158470803        2.87940264319678
H            2.98848912426531       -4.00301001457713        1.08763150098014
H            1.38604595392325       -4.18491573660635       -1.22060000418720
H            0.18064221618415       -3.71927364965775       -3.31938837390430
H           -0.93142044158568       -1.51922870896931       -4.61467479577420
H            0.37569789288905       -2.28003810191565       -5.51740290810476
H            0.39310726981388       -0.53181569540747       -5.24036519209866
H            1.74578440033636        0.26045856210899       -3.44611465732292
H            5.43842494982199        0.93754084195877       -1.64238816038437
H            5.91867699261958        3.33160930454296       -2.03834350781837
H            4.08443588334236        4.99020891951465       -1.88691004538533
H            1.80262655749045        4.25908588541692       -1.33438393770728
H           -1.70416101826191        4.56442094778519       -0.08366196986614
H           -3.89855660432876        5.51240453918097        0.50591408468565
H           -5.73345278036484        4.02979271865369        1.25591000887017
H           -5.33034043427078        1.60248908292123        1.49460823280499
H           -5.19536397807463        0.35650019913057       -0.83487187009285
H           -7.25598772927107       -2.35930010043060       -1.70722630371504
H           -6.09616649451859       -2.16473633718561       -3.01609448834859
H           -6.77656358915500       -0.73733915715563       -2.22664486531677
H           -5.16103211599886       -3.91189421843630       -1.11275390614905
H           -3.29206099126175       -4.05472582864442        0.48754144979037
H           -1.23605870860071       -3.47642581020102        2.31279272369972
H            0.35438236888846       -2.35681230113496        3.82540561868690
H            1.54840235395067        0.47948056269106        3.83565760177547
H            0.85854986730776       -0.39856219372376        5.19949813561773
H            0.23039717859375        1.19899782560359        4.75937994931570
H           -1.27114205103299        1.47456329984325        2.83919116616647
H            4.83712385301298        0.62099217486566        1.06235868810756
