79
 energy: -122.169697740314 gnorm: 0.000113576187 xtb: 6.7.1 (edcfbbe)
C            4.81616608462231        1.21813347563453       -3.85068518219835
C            4.24960473101339        1.51773509946929       -2.49386525018784
C            3.95560097157919        2.84126057619424       -2.14743670920287
C            3.43383074139553        3.17346112598845       -0.91408182503698
C            3.20486360875958        2.16274959652524        0.01102637082563
C            2.69972192571490        2.12882023863611        1.35533022649263
C            2.27580236546275        3.10103259342922        2.25235113590685
C            1.88249652728869        2.71160472234908        3.51555134053949
C            1.90864433261487        1.37148925185381        3.91747967363720
C            1.46691089785588        1.00745339798500        5.30437676293209
C            2.32954543348794        0.39331630929529        3.03166696347626
C            2.70480738239726        0.77516078507072        1.75400657104548
N            3.19301191568615       -0.00051234192784        0.72221448318038
C            3.36508702778196       -1.38917144850927        0.73352624759303
C            4.65369576579573       -1.90857917111576        0.64871805942461
C            4.87194582401074       -3.27357212080570        0.66291392454288
C            3.79775298422573       -4.14592869830814        0.76189749569632
C            2.51195095167385       -3.64805050841150        0.82119233007761
C            2.27421038918986       -2.27174716758259        0.79910825631742
C            0.90986614772862       -1.79642088556901        0.75731809690299
N            0.45580877003577       -0.58954523377908        0.91638771287643
N           -0.86831938736015       -0.62765700900020        0.71861806238249
C           -1.18256907166839       -1.85601739278474        0.43561371262550
C           -2.48883884823310       -2.39727496448415        0.12228738644885
C           -2.75967229223274       -3.73415520398686        0.41213672112535
C           -4.01179355345189       -4.26684263889816        0.17742476519498
C           -5.00986581049785       -3.46730165185589       -0.35999247364622
C           -4.74667896120215       -2.14907666159059       -0.68219325538280
C           -3.48876986393115       -1.59598098579098       -0.45433919619729
N           -3.23994436676429       -0.27435807441477       -0.82700956373437
C           -3.96777455160284        0.82595435655301       -0.40579012279938
C           -5.08094555236181        0.88096799736027        0.41858629572316
C           -5.63022321425350        2.11953808079597        0.71130234491536
C           -6.83935210153303        2.23049404626345        1.59207263692469
C           -5.05400663285262        3.28071794756590        0.18472842913419
C           -3.93271681663570        3.23563330568448       -0.61725743732600
C           -3.37513759843286        1.99944362890234       -0.91846154948760
C           -2.23240610346174        1.58239071158725       -1.68221614084661
C           -1.26600401456782        2.25951932760890       -2.41475527389863
C           -0.28189110082176        1.53147902564195       -3.04867816403151
C           -0.24942859525655        0.13401875599059       -2.99429703892772
C            0.84397550544456       -0.60372850538536       -3.70887128425064
C           -1.21692166809363       -0.55081055255994       -2.27758406273200
C           -2.18383861853259        0.17508564621470       -1.59801862962556
O           -0.09504971995404       -2.66340670134271        0.46134560002445
C            3.50794567822182        0.82809314113560       -0.33616049094138
C            4.01992609048976        0.49932124269190       -1.58198002481048
H            5.78994979287378        1.69382365464866       -3.96569157741224
H            4.93464287561596        0.14725800337614       -3.99709973086353
H            4.16367354461294        1.60782056627033       -4.63115903915489
H            4.14102058832346        3.61883298449737       -2.87489403504185
H            3.20642278880642        4.20068394993652       -0.67055101207089
H            2.26015126351360        4.14247551740265        1.96638606129251
H            1.54834973242839        3.45736669487439        4.22304424398866
H            0.38207461310002        1.08813250908900        5.38157428420379
H            1.90488090074760        1.68228792258128        6.03784684573801
H            1.75262319299333       -0.01277033444070        5.54946680324118
H            2.35917983534443       -0.64583901969558        3.32883641559012
H            5.48296430953904       -1.21987710933925        0.58189211379664
H            5.87907272754893       -3.65723977282161        0.60551517005372
H            3.96306917194169       -5.21201308893321        0.78409717078491
H            1.66985821439904       -4.32179070012562        0.87895494268431
H           -1.97870778123179       -4.34393962097844        0.84242360288310
H           -4.21054014445831       -5.30032856927829        0.41512104935408
H           -5.99092355495392       -3.87761565310618       -0.54484627135434
H           -5.50965455172717       -1.53409540287629       -1.13506758198745
H           -5.50810291009105       -0.01901855659631        0.83627712729923
H           -7.65542895223723        2.71409836499492        1.05606317894363
H           -6.61372944346998        2.83648380499199        2.46897345917252
H           -7.17230635251978        1.25021870763457        1.92355560451396
H           -5.50030390183688        4.23517594375509        0.42515407397786
H           -3.49132315430657        4.14298659479431       -1.00176587491510
H           -1.28404721277439        3.33704629024229       -2.48159333831308
H            0.48514826650799        2.04415823187889       -3.61037675348916
H            1.81351858592762       -0.30290534568732       -3.31271263200347
H            0.83002610187545       -0.36827417038666       -4.77248557166766
H            0.73539634618512       -1.67964787492341       -3.58916115445755
H           -1.20721961204260       -1.63311426665727       -2.24483663300996
H            4.23708258304157       -0.52913778182319       -1.83620232988755
