  54
  -89.2951017000000       0.311421047220758      !
 N         -3.3914032313       -2.6478481992       -2.2103042621
 C         -2.4072157290       -2.2270564622       -1.7754386373
 C         -1.2131476456       -1.7260533134       -1.2623587270
 C         -0.0011813842       -2.2701004195       -1.6641579187
 C          1.2127347431       -1.7346420730       -1.2563244244
 C          2.4047827802       -2.2485858517       -1.7611614971
 N          3.3868807741       -2.6828521411       -2.1872106706
 C          1.2101605616       -0.5514632626       -0.3981177746
 N          2.4199237636       -0.0030254416        0.0167020058
 C          3.4436065055       -0.6944268934        0.6276332462
 C          3.4876608547       -2.0222249340        1.0352230274
 C          4.6468088467       -2.4709225087        1.6390102375
 C          5.7291927541       -1.6203690776        1.8519342086
 C          5.6759907909       -0.2854735367        1.4831694580
 C          4.5257867921        0.1866537606        0.8745571413
 C          4.1138819471        1.4790487276        0.3948761597
 C          4.7231820578        2.7218218113        0.3496166158
 C          4.0323981998        3.7796226997       -0.2194254296
 C          2.7589332547        3.6023821205       -0.7552008501
 C          2.1308282420        2.3713443533       -0.7195908693
 C          2.8061690516        1.3132808801       -0.1264248118
 C          0.0024700426        0.0178186472       -0.0338046890
 C         -1.2068178545       -0.5455486545       -0.4005267717
 N         -2.4162372117        0.0002799894        0.0191261483
 C         -3.4351926182       -0.6996817689        0.6285747674
 C         -3.4688693166       -2.0288886042        1.0323605941
 C         -4.6237215249       -2.4874323964        1.6369589338
 C         -5.7117575688       -1.6451023836        1.8536330720
 C         -5.6691579622       -0.3091145936        1.4874900960
 C         -4.5231402864        0.1730187071        0.8786079603
 C         -4.1199414143        1.4696298439        0.4021934774
 C         -4.7379140526        2.7083560495        0.3605584646
 C         -4.0543383166        3.7727287184       -0.2047873014
 C         -2.7786842249        3.6063413555       -0.7390542411
 C         -2.1418430993        2.3796325489       -0.7070583903
 C         -2.8108354915        1.3143700752       -0.1193592729
 H         -0.0024931621       -3.1251725438       -2.3261948151
 H          2.6473642145       -2.6832075173        0.8912629090
 H          4.7127002209       -3.5004834609        1.9555254283
 H          6.6201654708       -2.0083620064        2.3221572151
 H          6.5107715942        0.3735256637        1.6666996602
 H          5.7184001232        2.8593964208        0.7436717110
 H          4.4907927731        4.7559522310       -0.2612811447
 H          2.2547440947        4.4407895218       -1.2111260308
 H          1.1540563281        2.2346020180       -1.1564967369
 H          0.0039259967        0.8804079539        0.6182541100
 H         -2.6237779990       -2.6832641692        0.8852637166
 H         -4.6812761021       -3.5179937733        1.9517403382
 H         -6.5987878040       -2.0402841387        2.3251148332
 H         -6.5089268144        0.3429352856        1.6734090169
 H         -5.7341473645        2.8377116480        0.7548515944
 H         -4.5196124690        4.7459980922       -0.2438526636
 H         -2.2795154212        4.4502581235       -1.1906197117
 H         -1.1626453229        2.2521184679       -1.1415323418
  54
  -89.2950334900000       0.289734902612762      !
 N         -3.3685336671       -1.1520271402       -3.2805459341
 C         -2.3934904302       -0.8704266712       -2.7286793863
 C         -1.2075339251       -0.5340421674       -2.0797692323
 C          0.0057126641       -0.6645838968       -2.7406225415
 C          1.2173690161       -0.4580372785       -2.0950370698
 C          2.4151673309       -0.6804833435       -2.7695362382
 N          3.4030221382       -0.8696629400       -3.3380507487
 C          1.2093969044       -0.1308523342       -0.6710611122
 N          2.4173479462        0.0322106721        0.0022776705
 C          2.8070224125       -0.6483775684        1.1363885666
 C          2.1391289044       -1.6407988006        1.8404023839
 C          2.7693355373       -2.1888744670        2.9418789544
 C          4.0371854186       -1.7653547485        3.3334879149
 C          4.7201417690       -0.7939985252        2.6196640241
 C          4.1089031943       -0.2323515066        1.5111701462
 C          4.5136308380        0.7518268484        0.5423378887
 C          5.6555613789        1.5160956608        0.3744650268
 C          5.7027382313        2.4115347060       -0.6822329339
 C          4.6237188695        2.5606106954       -1.5505333805
 C          3.4730680188        1.8099794781       -1.4026822212
 C          3.4340868027        0.8857508766       -0.3658471209
 C          0.0018601559       -0.0274864734       -0.0049746285
 C         -1.2075631553       -0.1705271165       -0.6636037135
 N         -2.4176075954        0.0085777635       -0.0018461309
 C         -2.7914940571       -0.5767228173        1.1901202366
 C         -2.1007551201       -1.4808084528        1.9860811834
 C         -2.7176809792       -1.9351843504        3.1368076520
 C         -3.9961264055       -1.5082676466        3.4887892353
 C         -4.7026847420       -0.6283635377        2.6850553246
 C         -4.1046459369       -0.1610990286        1.5266539634
 C         -4.5336402746        0.7204698484        0.4737572217
 C         -5.6961474946        1.4346054812        0.2390149682
 C         -5.7646802280        2.2343429297       -0.8906964677
 C         -4.6851132701        2.3413884583       -1.7644113457
 C         -3.5140479703        1.6398150313       -1.5499237325
 C         -3.4547480837        0.8039128545       -0.4413036101
 H          0.0079365316       -0.9513533695       -3.7833098253
 H          1.1669312640       -1.9878319234        1.5265762684
 H          2.2710061946       -2.9621990653        3.5067931777
 H          4.4978527972       -2.2130817115        4.2010360827
 H          5.7111935571       -0.4855620492        2.9149014988
 H          6.4885206064        1.4163452503        1.0534808150
 H          6.5865146199        3.0130509154       -0.8316254589
 H          4.6855393211        3.2799501638       -2.3525143221
 H          2.6353165400        1.9421849307       -2.0694622111
 H          0.0030575337        0.2470303945        1.0408311427
 H         -1.1190584237       -1.8322683563        1.7101646051
 H         -2.1996964087       -2.6369473205        3.7727507702
 H         -4.4449255067       -1.8799237021        4.3974438911
 H         -5.7010737099       -0.3165316936        2.9508781527
 H         -6.5285413357        1.3699614822        0.9230138425
 H         -6.6648139544        2.7946552924       -1.0932844522
 H         -4.7623146746        2.9889129279       -2.6241422659
 H         -2.6762524858        1.7455386328       -2.2213094892
  54
  -89.2946050200000       0.184115196983268      !
 N         -3.3165627546       -1.9908258269       -2.9024392804
 C         -2.3458766034       -1.6040698784       -2.4095255072
 C         -1.1649114346       -1.1550782860       -1.8240203992
 C          0.0594385212       -1.6102016855       -2.2918547212
 C          1.2540503717       -1.2958226351       -1.6601280805
 C          2.4656024625       -1.6612391906       -2.2414375429
 N          3.4611113077       -1.9653171254       -2.7429425584
 C          1.2146079325       -0.4846057749       -0.4431427084
 N          2.4097015022       -0.1300444638        0.1755404423
 C          3.4108622138       -1.0029309766        0.5426815467
 C          3.4280316364       -2.3916826429        0.4934081375
 C          4.5622534842       -3.0365403914        0.9485878447
 C          5.6459057123       -2.3245443488        1.4576152941
 C          5.6181074757       -0.9418212599        1.5458916486
 C          4.4933618698       -0.2731346850        1.0936535086
 C          4.1071562936        1.1126185952        1.0589790900
 C          4.7273205634        2.2884042634        1.4467642079
 C          4.0612404677        3.4869338718        1.2471426978
 C          2.8011616713        3.5200413114        0.6546519258
 C          2.1608192222        2.3593366054        0.2611123095
 C          2.8128191782        1.1528651510        0.4817804377
 C         -0.0027471530       -0.0050447786        0.0049727965
 C         -1.1899908091       -0.2906816924       -0.6440837550
 N         -2.4148025990        0.1422858733       -0.1445536627
 C         -2.8626198864       -0.0200656721        1.1494717445
 C         -2.2412136453       -0.6387686376        2.2267382536
 C         -2.9250832212       -0.6820389403        3.4277500242
 C         -4.1973528239       -0.1300020748        3.5570009886
 C         -4.8320532775        0.4667931721        2.4794912171
 C         -4.1684684135        0.5195731198        1.2652734800
 C         -4.5143246616        1.0277886984       -0.0358135049
 C         -5.6285132897        1.6720348646       -0.5459299400
 C         -5.6142921357        2.0666895276       -1.8742860523
 C         -4.5004435879        1.8444971181       -2.6806573383
 C         -3.3756582417        1.2065561314       -2.1934166379
 C         -3.3988721161        0.7753483787       -0.8725124996
 H          0.0835476875       -2.2298250658       -3.1779665597
 H          2.5869241996       -2.9522100403        0.1162886062
 H          4.6070155053       -4.1140557752        0.9122491106
 H          6.5166704161       -2.8629228540        1.7996555704
 H          6.4519857251       -0.3965729982        1.9607043353
 H          5.7111800137        2.2695865149        1.8897136528
 H          4.5287375187        4.4134402473        1.5443472574
 H          2.3161060574        4.4710478511        0.4948960242
 H          1.1935453878        2.3948853085       -0.2164588944
 H         -0.0271968478        0.6132110495        0.8915075902
 H         -1.2642538852       -1.0868955579        2.1284348456
 H         -2.4652504456       -1.1577140500        4.2806719892
 H         -4.6992084597       -0.1798165272        4.5114050081
 H         -5.8251716560        0.8768591007        2.5804182805
 H         -6.4866242030        1.8644725319        0.0797975315
 H         -6.4761912624        2.5651275644       -2.2913459778
 H         -4.5138334495        2.1807062516       -3.7059390138
 H         -2.5113245876        1.0535029550       -2.8206886245
  54
  -89.2946015100000       0.183432612988298      !
 N         -3.4642607298       -1.9478965880       -2.7353552722
 C         -2.4661662932       -1.6431453441       -2.2394343853
 C         -1.2539627530       -1.2760373433       -1.6607693509
 C         -0.0587457671       -1.5880572639       -2.2923320305
 C          1.1643612455       -1.1308713764       -1.8236951290
 C          2.3460478757       -1.5819012381       -2.4063686885
 N          3.3185269418       -1.9719597564       -2.8935230041
 C          1.1875594126       -0.2642727371       -0.6448733450
 N          2.4130890992        0.1640431971       -0.1433920949
 C          2.8623386829       -0.0056768229        1.1495298138
 C          2.2343898870       -0.6128022205        2.2295064927
 C          2.9219454504       -0.6677613506        3.4279932826
 C          4.2044347793       -0.1389907499        3.5521676015
 C          4.8454189240        0.4460638381        2.4719553291
 C          4.1779616494        0.5107732421        1.2604752067
 C          4.5284384068        1.0125495945       -0.0418301927
 C          5.6532851363        1.6339107672       -0.5568214769
 C          5.6417298452        2.0275939174       -1.8854827994
 C          4.5200445564        1.8282104667       -2.6869226088
 C          3.3848855463        1.2128868110       -2.1948550911
 C          3.4054643777        0.7805194732       -0.8742439231
 C         -0.0009091650        0.0206567548        0.0029792515
 C         -1.2161936052       -0.4643508348       -0.4440862154
 N         -2.4134808615       -0.1223375155        0.1780980386
 C         -3.3997013503       -1.0089001591        0.5526154593
 C         -3.3954019970       -2.3978869390        0.5083188203
 C         -4.5171982504       -3.0585584872        0.9713821531
 C         -5.6092504780       -2.3614896224        1.4829006384
 C         -5.6033266570       -0.9780444368        1.5643088610
 C         -4.4915275675       -0.2935967086        1.1038108946
 C         -4.1280447960        1.0981133064        1.0588136055
 C         -4.7669018851        2.2665759274        1.4382784137
 C         -4.1215948082        3.4743767538        1.2264072093
 C         -2.8631101232        3.5236552134        0.6316159817
 C         -2.2038860381        2.3705145065        0.2469515018
 C         -2.8361268056        1.1555260393        0.4777208028
 H         -0.0812599408       -2.2074529844       -3.1786705159
 H          1.2495900970       -1.0444306742        2.1353845781
 H          2.4568726215       -1.1349238598        4.2827648622
 H          4.7091461001       -0.1977755194        4.5045891457
 H          5.8460803156        0.8386040046        2.5689285103
 H          6.5176954358        1.8093054567        0.0652652586
 H          6.5121095589        2.5074483788       -2.3066702024
 H          4.5357787848        2.1642206433       -3.7121553734
 H          2.5147183522        1.0776532391       -2.8180835587
 H          0.0211785423        0.6411133884        0.8880466703
 H         -2.5473998987       -2.9464084742        0.1288253983
 H         -4.5453652641       -4.1367562551        0.9395658741
 H         -6.4698251161       -2.9120901974        1.8314829061
 H         -6.4444002523       -0.4443016610        1.9795714073
 H         -5.7497269917        2.2351411687        1.8826478474
 H         -4.6048015103        4.3953888507        1.5148397237
 H         -2.3948476077        4.4813952774        0.4623036271
 H         -1.2377507331        2.4173200012       -0.2319487131
  54
  -89.2929304100000       3.129624019491334E-002 !
 N         -3.2577758455       -2.4989871514       -2.5284420212
 C         -2.3167152220       -1.9486980436       -2.1458379147
 C         -1.1557169733       -1.3161114889       -1.7061564160
 C          0.0731766570       -1.6557091915       -2.2517377645
 C          1.2656913536       -1.2035310905       -1.7057530534
 C          2.4597687165       -1.3832501289       -2.4007917391
 N          3.4366376882       -1.5126401137       -3.0036031374
 C          1.2243351198       -0.4390901160       -0.4567723383
 N          2.4175492003       -0.1097026239        0.1740413135
 C          3.4601845044       -0.9882134909        0.3941694791
 C          3.5367262829       -2.3519623007        0.1354529496
 C          4.7140687567       -3.0028334612        0.4513786746
 C          5.7812603762       -2.3281406376        1.0389703713
 C          5.6893104409       -0.9821311243        1.3539145273
 C          4.5218736025       -0.3076042131        1.0392145577
 C          4.0739872877        1.0440651234        1.2400917959
 C          4.6457889283        2.1565900140        1.8335962023
 C          3.9269812564        3.3404376214        1.8550453388
 C          2.6674323027        3.4244744377        1.2667514753
 C          2.0771356863        2.3274160960        0.6666178566
 C          2.7727802410        1.1242115070        0.6809657926
 C         -0.0032416384       -0.0157351000        0.0223847635
 C         -1.1933930616       -0.3718981630       -0.5875236798
 N         -2.4228102722        0.1000374440       -0.1442074920
 C         -2.8563930751        0.1864470234        1.1628784755
 C         -2.2243516328       -0.2029184296        2.3379078402
 C         -2.8886487181        0.0104472086        3.5316972026
 C         -4.1579756416        0.5829447798        3.5642095850
 C         -4.8117404656        0.9346295478        2.3947724803
 C         -4.1658381731        0.7314791343        1.1871380610
 C         -4.5348904660        0.9676005969       -0.1826377109
 C         -5.6700416316        1.4759288166       -0.7910602201
 C         -5.6802059701        1.6051152125       -2.1704231223
 C         -4.5651049097        1.2650805123       -2.9321414549
 C         -3.4186722614        0.7633617413       -2.3460506149
 C         -3.4225336421        0.5783185704       -0.9683253546
 H          0.1030335037       -2.2889753187       -3.1281051712
 H          2.7089250848       -2.8948455990       -0.2930105804
 H          4.8043746292       -4.0578445151        0.2435685066
 H          6.6870656363       -2.8692983697        1.2665816562
 H          6.5079089033       -0.4682741358        1.8341788123
 H          5.6314665082        2.0991998508        2.2692038786
 H          4.3526244817        4.2165379324        2.3202844369
 H          2.1423415739        4.3676297814        1.2733136086
 H          1.1151203807        2.4180112097        0.1868398661
 H         -0.0338465501        0.6128490584        0.8997584511
 H         -1.2539880217       -0.6744509151        2.3268515619
 H         -2.4145227175       -0.2775887645        4.4577150067
 H         -4.6426718908        0.7397817110        4.5158694404
 H         -5.8048933236        1.3560935267        2.4207014385
 H         -6.5264687926        1.7650418260       -0.2013647496
 H         -6.5591611334        1.9905225459       -2.6643748173
 H         -4.5922293813        1.4030819665       -4.0020341851
 H         -2.5526303495        0.5324730490       -2.9462632306
