89
 energy: -126.914066687921 gnorm: 0.000082182767 xtb: 6.7.1 (edcfbbe)
C           -5.99923728338985       -3.37713248331173        1.47411831899265
C           -5.14657042445367       -3.74244507603338        0.24885072694721
C           -4.89038933467067       -5.25221376456613        0.27437147926942
C           -5.91870791245606       -3.40798230889987       -1.03679475141079
C           -3.86226272627371       -2.93429217862672        0.29017396399493
C           -2.60158115594411       -3.50364408927825        0.36496665298737
C           -1.46580865304112       -2.71076143324855        0.48011654433814
C           -1.53687841242738       -1.31361353765667        0.50946835670967
C           -0.39420387419268       -0.50096729122811        0.74557551517856
C            0.89318908869327       -1.12328691614395        1.05440606134284
C            1.02577091040885       -1.99438343692229        2.13990436806393
C            2.24941496397796       -2.56147791090929        2.44075914868325
C            3.36234173677462       -2.28972582991672        1.66347063512108
C            3.24535893804441       -1.42676101121046        0.57628343013599
N            4.36594685438542       -1.14469937013354       -0.22320381233278
C            4.43450520582447       -1.27930500639473       -1.59509538719713
C            3.47178681365660       -1.72882671645741       -2.48817215508056
C            3.81263215045504       -1.79241025857822       -3.82582473812583
C            5.08132782113514       -1.42666795607843       -4.27206383218909
C            6.04913401679492       -0.99663070135305       -3.38591606951885
C            5.73090808270524       -0.92401320419990       -2.03561994049258
C            6.47208285806943       -0.55087775573832       -0.86307463748981
C            7.76903270331800       -0.09966036422016       -0.65310625339852
C            8.16604437320100        0.19939855530787        0.63529409190853
C            7.28442069103251        0.06546548735455        1.70641640670654
C            5.99040411329130       -0.38342323737426        1.52352320478470
C            5.59225567544637       -0.70615590447725        0.23349027603772
C            2.02083600524357       -0.84368388674431        0.28077999543220
C           -0.50510690760530        0.92152956458144        0.69197678591216
C            0.57479141996736        1.75062405524890        0.99965570683809
C            0.53264899067955        3.14352905546294        0.85834429845094
C            1.76200048359631        3.95946064107136        1.21495166339242
C            1.54952067344157        5.46193288383932        1.00828564761105
C            2.10779668264070        3.72155741282973        2.69309113376469
C            2.93570324738130        3.51088413444217        0.33031956497684
C           -0.64039801939407        3.69754796925495        0.37265176532826
C           -1.75430174562679        2.90363847678666        0.11771651878623
C           -1.74729810134875        1.52280934794035        0.33086168177980
C           -2.91104973628124        0.71285382228454        0.15279175174022
C           -4.18634815158484        1.32575763520012       -0.15972206058721
C           -4.96042068727517        0.87434975436889       -1.24434982273892
C           -6.16591557646824        1.45603739881893       -1.55200008498899
C           -6.66064620876192        2.50821077674614       -0.76695246357405
C           -7.89774950461463        3.09806082626176       -1.06945719040353
N           -8.91357852669011        3.58054691356686       -1.31745212253891
C           -5.90550834854169        2.96351461755899        0.32400684600577
C           -4.69146771751135        2.38853389347205        0.61074745394037
C           -2.81017599013683       -0.71236202207600        0.28267684179331
C           -3.93515843066519       -1.53432398140824        0.24643319213878
H           -6.91975950295649       -3.95700990238061        1.47341726264696
H           -5.45462348193890       -3.59478566825741        2.39097736680289
H           -6.26237568183734       -2.32254900101885        1.47586376234842
H           -4.30773435930195       -5.56482210745518       -0.58933308279757
H           -5.84090047475216       -5.78125026307341        0.24725211753985
H           -4.36908451068580       -5.54599870398722        1.18263084071452
H           -6.20687209716642       -2.36082714534457       -1.06767450925986
H           -5.30724294417482       -3.62285618368802       -1.91126921792706
H           -6.82401242575957       -4.00871176507177       -1.09367682426982
H           -2.47289664932095       -4.57325271513873        0.35544198465055
H           -0.50205037376254       -3.19206848977144        0.54969340816518
H            0.16580991768098       -2.19860969789674        2.76025591812348
H            2.33892762433697       -3.22725990776894        3.28661109744980
H            4.31460329926778       -2.74804297833621        1.88326468649894
H            2.49041034233727       -2.02771705395927       -2.15137067532173
H            3.08010995311752       -2.13668764964283       -4.54156896419937
H            5.30842971203077       -1.48900652424222       -5.32639736912148
H            7.03596243558131       -0.72583239171961       -3.73101895876065
H            8.44874418253952        0.01781124935726       -1.48403044710708
H            9.17106811155947        0.55021539464211        0.81936058318516
H            7.61971014537358        0.32059031603131        2.70133327606042
H            5.31057105534321       -0.47186164328044        2.35782202365602
H            1.93697118582922       -0.17866427182264       -0.56639630010613
H            1.47912816678683        1.28941615029932        1.36231315227820
H            1.34260582370136        5.68888020325930       -0.03517110975569
H            2.45195789660182        5.99816089395113        1.29476956539195
H            0.73091961265828        5.82980017089714        1.62297287732445
H            2.98528905758773        4.30320888733076        2.96740439792660
H            2.32005899656136        2.67396421285513        2.88909556853350
H            1.27825118146958        4.02709961570480        3.32799128043343
H            3.81757615612248        4.10984290989915        0.54744974235718
H            2.68548441190886        3.63483641892007       -0.72173850060672
H            3.18614147172191        2.46790549851267        0.50197971252591
H           -0.72320636586802        4.75620897406851        0.19094184726116
H           -2.64447741351395        3.37799851438517       -0.26644640453847
H           -4.57250548436870        0.08510238325077       -1.87164831444282
H           -6.74024058914216        1.11474554231471       -2.40167069010576
H           -6.29294504143494        3.76438388130602        0.93769153968424
H           -4.13177482050587        2.72431079320012        1.47136499723396
H           -4.90508290503860       -1.06708239749339        0.19105328988633
