89
 energy: -126.979911283024 gnorm: 0.000159218606 xtb: 6.7.1 (edcfbbe)
C           -6.00067329590143       -2.82139707072004        0.12857100175222
C           -4.70738661460186       -3.41126388278064        0.69986471638568
C           -4.99043143427858       -3.88606596355041        2.13321064097334
C           -4.29933339701315       -4.60682077164055       -0.17392220202552
C           -3.56792227065832       -2.40585852741994        0.72918213407935
C           -2.30673322264390       -2.81486137677109        1.23592597157952
C           -1.24762851219864       -1.96545240470457        1.27863935359879
C           -1.35549932280911       -0.62463533885098        0.82652019769778
C           -0.26944609244952        0.25515419156499        0.84809648217325
C            1.04369289581113       -0.20070872050039        1.36196748880136
C            1.34487923628134       -0.09536488230240        2.71616083401059
C            2.57991084130799       -0.50450698977454        3.18822073625853
C            3.52272814133521       -1.02781293638220        2.32183696730992
C            3.23021708906841       -1.13440236413263        0.96501033129316
N            4.18176176041043       -1.66460341874864        0.07874965839532
C            5.49756778308190       -1.26184807371534       -0.02837117872367
C            6.15968083762895       -0.22559179205625        0.61545525318092
C            7.48852091911986       -0.01422037762541        0.30097482540778
C            8.14938257504819       -0.80655475679914       -0.63596955620677
C            7.49017951916192       -1.82469836142211       -1.29592861084502
C            6.15285201548101       -2.05535979979958       -0.99871130355804
C            5.17526887258778       -2.98503012365958       -1.49199455457016
C            5.21828235038027       -4.01247624561382       -2.42609412874099
C            4.07135366904894       -4.74564849828255       -2.65747128898562
C            2.89435819103846       -4.47299448112033       -1.96274850425387
C            2.82672493113125       -3.45717924419584       -1.02840909549591
C            3.97133333825041       -2.70475721193208       -0.80434885998447
C            1.99210084029834       -0.71748705317431        0.48909190107188
C           -0.41572394519064        1.57199310032454        0.39099343753364
C            0.66821402774473        2.48270112827153        0.40681928998940
C            0.55244543211778        3.77988855193605       -0.01224167030890
C            1.76515262832697        4.69816472527440        0.03155257954662
C            2.25818115671355        4.80579790184071        1.48251831927904
C            2.87412580872958        4.10198800282682       -0.84888140423626
C            1.45986266386047        6.11069343464694       -0.47573440415163
C           -0.71642928228094        4.21231479572338       -0.46608486853842
C           -1.78570332869171        3.36923745996856       -0.50245983951849
C           -1.68289912467127        2.01623788875212       -0.09306556354446
C           -2.77058332400258        1.13079279524355       -0.12121919307689
C           -4.07684514807713        1.59054604941272       -0.63602831593100
C           -4.24023757967927        1.87017340089409       -1.99229496806435
C           -5.45948243980565        2.28898825126743       -2.48397121440198
C           -6.54221185609904        2.43978533213578       -1.61417511835794
C           -7.79196077589425        2.86684015351337       -2.11085481407247
N           -8.80881160500021        3.21571217119306       -2.51495733397700
C           -6.38698196938212        2.16686981096577       -0.25284959030413
C           -5.16322629873408        1.74519822251139        0.22467395458767
C           -2.62181057720637       -0.18855928822929        0.33180824616442
C           -3.69344467112984       -1.11931108210097        0.28944172644970
H           -6.77856723052178       -3.58243195471155        0.13217912376163
H           -6.34870535311715       -1.98373479792664        0.72905417114758
H           -5.86141125635432       -2.48944720712514       -0.89810122153773
H           -4.12402338626342       -4.37548950911389        2.56971878034390
H           -5.81685096468640       -4.59373952169970        2.13529636623847
H           -5.25868289853310       -3.04042145349716        2.76382231811318
H           -4.08240207674737       -4.27525696077216       -1.18777001303559
H           -3.41657607954040       -5.10462880177193        0.21820544817267
H           -5.10891216647126       -5.33267547782849       -0.21448505452138
H           -2.17978544827939       -3.82612085054172        1.59149074859143
H           -0.29531388579929       -2.30238049599159        1.66275971910631
H            0.60804115896398        0.31071917468015        3.39342014607271
H            2.80811022933856       -0.42244258970975        4.24079228049226
H            4.48045077004859       -1.36470751485637        2.68928010551812
H            5.65322797304651        0.40256621562548        1.33294076427020
H            8.02657045098012        0.78511847902707        0.78974011278180
H            9.18987367957414       -0.61223958421183       -0.85175941952085
H            7.99886816088649       -2.42880712013241       -2.03252282942696
H            6.13335700007165       -4.23240343709320       -2.95576956265940
H            4.08382611681013       -5.54777426031422       -3.38099665031861
H            2.01562127434073       -5.07080859783647       -2.15707912619975
H            1.91314657656918       -3.26348657716296       -0.48703200282626
H            1.77215824326688       -0.78288779503669       -0.56654284009641
H            1.61253236944673        2.11087514078600        0.77398049654159
H            1.47047692696051        5.20278040659621        2.12023558199707
H            3.11584594322121        5.47312128592626        1.53755545014610
H            2.55569740019222        3.83574386444650        1.87192957236344
H            3.74582621923423        4.75322222187885       -0.84528507710821
H            2.52641656179212        3.99764686881589       -1.87503587060647
H            3.18077653482417        3.12213303637518       -0.49215456647355
H            2.36345845110034        6.71524871981591       -0.42584020720981
H            0.70100960409081        6.59287681675800        0.13672106599088
H            1.12658143138944        6.09290253963839       -1.51117128572150
H           -0.85399712579818        5.23128863730951       -0.78889759469050
H           -2.74221303475597        3.73633411858071       -0.84563360471067
H           -3.40146743719468        1.74886150036328       -2.66200026811988
H           -5.58625431389055        2.50092235122535       -3.53578363808405
H           -7.22743283402987        2.28867513827723        0.41505877929659
H           -5.03825915789646        1.53518307883314        1.27683982352035
H           -4.62839486182845       -0.76794041784127       -0.11365848723036
