89
 energy: -126.980629437442 gnorm: 0.000063206239 xtb: 6.7.1 (edcfbbe)
C           -3.35205343847251       -5.29800085299384       -1.36126268110650
C           -3.95878427482613       -4.46679907742681       -0.22093043735389
C           -5.36055626980150       -4.01952391959616       -0.64756405852707
C           -4.09713131970408       -5.33360173519122        1.03979219749313
C           -3.03692159988099       -3.29663554750304        0.08025626601029
C           -1.70803709169239       -3.56225746634159        0.50079863316328
C           -0.83323425978928       -2.55928461307268        0.77429625925447
C           -1.21290007722666       -1.19660157139802        0.66466669220624
C           -0.32144138696173       -0.15258467377331        0.93488293014912
C            1.06385060695831       -0.45602261157391        1.36458936858770
C            1.34329269876406       -0.73100333017515        2.69942670644143
C            2.64152439318742       -0.99882506781701        3.09712905948763
C            3.67279165790101       -0.98865567585991        2.17552444718828
C            3.40084366884877       -0.72480794910434        0.83578601724762
N            4.44286893572754       -0.71251204082900       -0.10490079143786
C            5.40497450475948       -1.69097028721895       -0.25792756994393
C            5.52826433073433       -2.91800159278987        0.37941800796170
C            6.58590635232366       -3.73065061464554        0.01823759844628
C            7.49985748844115       -3.34383401170798       -0.96026510538825
C            7.36784595198529       -2.13616649843178       -1.61641548148917
C            6.31231740889852       -1.30179992469432       -1.27065917038328
C            5.86927120407059       -0.02027463425595       -1.74397773710385
C            6.35002348381466        0.86246258362845       -2.70291311319447
C            5.67881590530223        2.05216851460704       -2.90370791191580
C            4.54819700695030        2.37144212199099       -2.15419563380672
C            4.05124881452121        1.50986201387710       -1.19502534606393
C            4.71010396697977        0.30372961361698       -1.00087069864656
C            2.09528928252895       -0.46350495340032        0.43461318207703
C           -0.73349241667776        1.18094512034764        0.81166639581389
C            0.14682966742057        2.25510424440218        1.10659706361326
C           -0.23646770551552        3.56247754948044        1.01919835169291
C            0.68392875758163        4.72792845815808        1.34215065211135
C            2.08144338693405        4.27336011472674        1.77425347836915
C            0.82961091790191        5.61169231624740        0.09427214777939
C            0.07122035553941        5.54436045319629        2.49010452546731
C           -1.56945357386493        3.83372264081305        0.61593291011604
C           -2.44681551193530        2.83725578173010        0.32498828084954
C           -2.06916209479872        1.47165103903632        0.40171287910482
C           -2.96082451502588        0.42587581807349        0.12506807724100
C           -4.34095990925151        0.73431962860698       -0.30251361600074
C           -4.58190607681997        1.29661973741828       -1.55550634981376
C           -5.86806704214551        1.58497101570324       -1.96347566463022
C           -6.94180259036894        1.31439346587272       -1.11175964688306
C           -8.25943886507689        1.61080403232597       -1.52035716625410
N           -9.33213592293597        1.85232487006729       -1.85196653000914
C           -6.71021483943160        0.75210235761856        0.14605264630548
C           -5.41936126582694        0.46590261941473        0.53992343791705
C           -2.54898449702477       -0.90954247763950        0.25323510581249
C           -3.42025582778513       -1.99145691398202       -0.03972837928679
H           -4.00747296337790       -6.13147058605536       -1.60516767585435
H           -3.22991056399570       -4.68304015626796       -2.25109541680794
H           -2.37966586085144       -5.69887291237440       -1.08824035927356
H           -5.84308613622547       -3.43963775541706        0.13620739654971
H           -5.97585325872469       -4.89539379832855       -0.84398893914662
H           -5.32387066655060       -3.42540669528842       -1.55819143975865
H           -3.13856322855017       -5.73719397008894        1.35419191677740
H           -4.50483555760293       -4.74401374720159        1.85884870236205
H           -4.76955527230315       -6.16697994399051        0.84721715915983
H           -1.37682524447607       -4.58479166565720        0.59956965147030
H            0.17706820597318       -2.78846466716302        1.08136952527663
H            0.53963633499202       -0.72949172435677        3.42101768193217
H            2.85474678296073       -1.20594552748670        4.13559115580809
H            4.69012402502362       -1.17063973254488        2.48772353497306
H            4.81661018523268       -3.23483893071112        1.12693707512170
H            6.70547217143871       -4.68880963174724        0.50306761388635
H            8.31576252829572       -4.00548213850050       -1.21221101185768
H            8.06684295894803       -1.84382772669530       -2.38597944681725
H            7.23358124887287        0.62084289590980       -3.27496311589375
H            6.03513572789572        2.75120514563773       -3.64622684360981
H            4.05134638746182        3.31501888794227       -2.32721435852718
H            3.18004974646982        1.77137611354480       -0.61383734262806
H            1.87931456511840       -0.27657270599747       -0.60713647458582
H            1.14409214760641        1.99055647609845        1.41796036285707
H            2.03467792714299        3.65657430503897        2.66919511471586
H            2.69296977328498        5.14515298743935        1.99851992467518
H            2.57587969163572        3.71424023272102        0.98338427950442
H            1.50334519773544        6.44076127353528        0.30046102960180
H           -0.12726267323907        6.02138178236625       -0.21796535831580
H            1.23828958181501        5.03250661564403       -0.73152823527974
H            0.72770666406848        6.37203353154354        2.75042249285495
H           -0.05892690120508        4.91695074292532        3.36998740781478
H           -0.89764138032198        5.95336375344390        2.21675079178009
H           -1.90353640924160        4.85762028475853        0.54348108723734
H           -3.45875529420035        3.08125881988290        0.03563564646749
H           -3.74912318221950        1.50156546725310       -2.21217712003804
H           -6.05360172546402        2.01778054300019       -2.93586374115657
H           -7.54469415596812        0.54674913824507        0.80077935857285
H           -5.23551304846638        0.03466891950811        1.51302663620252
H           -4.41466500625775       -1.74144257761743       -0.36973744715614
