  89
       -126.86311929
 C         -6.1169342060       -3.3001549731        1.6043900281
 C         -5.2761651695       -3.7195253695        0.3892108984
 C         -5.0864075081       -5.2378402394        0.4345341568
 C         -6.0257290046       -3.3678250739       -0.9045464378
 C         -3.9590664598       -2.9676673432        0.4277716545
 C         -2.7246026564       -3.5860302412        0.5354980394
 C         -1.5583211979       -2.8370024583        0.6404729942
 C         -1.5735129704       -1.4387223086        0.6234882549
 C         -0.4055866643       -0.6581136916        0.8369584105
 C          0.8876652641       -1.2829032912        1.0927281001
 C          1.0844151919       -2.1956692423        2.1329542657
 C          2.3403686464       -2.7183190109        2.3782832818
 C          3.4251735483       -2.3535283148        1.5992150592
 C          3.2433517824       -1.4488436480        0.5553131605
 N          4.3265691434       -1.0452654742       -0.2388597301
 C          4.3656849725       -1.0589642270       -1.6175391205
 C          3.4270443796       -1.5347090316       -2.5220052418
 C          3.7319135383       -1.4557903508       -3.8672583763
 C          4.9417694914       -0.9242749312       -4.3091400638
 C          5.8867734206       -0.4661796287       -3.4128031320
 C          5.6036876546       -0.5341201553       -2.0550263531
 C          6.3343202291       -0.1739137951       -0.8720664686
 C          7.5788991181        0.4014141528       -0.6535960381
 C          7.9762604679        0.6455247931        0.6461215324
 C          7.1453910098        0.3354158721        1.7205241837
 C          5.9037969609       -0.2399702286        1.5291834812
 C          5.5085977284       -0.5078472558        0.2264096024
 C          1.9849238548       -0.9240490341        0.3062985815
 C         -0.4773969224        0.7675232896        0.7679532474
 C          0.6161598931        1.5642977746        1.1055122773
 C          0.6428390170        2.9483046359        0.9005653146
 C          1.9019746346        3.7127123139        1.2632704880
 C          1.7992498876        5.2019258393        0.9261807060
 C          2.1485638936        3.5727451432        2.7725487027
 C          3.0916423394        3.1216820710        0.4904020485
 C         -0.4858864352        3.5314496582        0.3494419045
 C         -1.6248645029        2.7753345609        0.0881137130
 C         -1.6812406091        1.4030514746        0.3456120463
 C         -2.8619780974        0.6240355639        0.1528049037
 C         -4.0969559458        1.2486472591       -0.2738275061
 C         -4.8156567407        0.7324463211       -1.3671017730
 C         -5.9774740895        1.3227311178       -1.7999513684
 C         -6.4811006872        2.4502098266       -1.1369547183
 C         -7.6739523295        3.0524024363       -1.5733908109
 N         -8.6498656549        3.5441132515       -1.9308557873
 C         -5.7859023252        2.9676951811       -0.0364199870
 C         -4.6141133567        2.3813425586        0.3777179199
 C         -2.8178912054       -0.7948006430        0.3594667991
 C         -3.9757327580       -1.5689206513        0.3400925869
 H         -7.0671296385       -3.8294855154        1.6016187990
 H         -5.5905611318       -3.5395301460        2.5261135367
 H         -6.3213023702       -2.2328881899        1.5958150187
 H         -4.5089865507       -5.5845864780       -0.4194667874
 H         -6.0580479245       -5.7261254270        0.4040719874
 H         -4.5865798238       -5.5426762570        1.3509897232
 H         -6.2708786059       -2.3103116977       -0.9495013701
 H         -5.4169020969       -3.6167017459       -1.7714676577
 H         -6.9537187797       -3.9322460833       -0.9619198368
 H         -2.6402371938       -4.6598229066        0.5581127449
 H         -0.6153969074       -3.3537251673        0.7319627924
 H          0.2545365674       -2.4572169171        2.7723189885
 H          2.4795824397       -3.4151324906        3.1915451014
 H          4.4040696553       -2.7676556555        1.7859827803
 H          2.4927142912       -1.9605082243       -2.1876199621
 H          3.0169222412       -1.8156910451       -4.5923109560
 H          5.1412199383       -0.8785793629       -5.3693175501
 H          6.8292070285       -0.0666019914       -3.7555939675
 H          8.2177990929        0.6538309954       -1.4861558026
 H          8.9420899003        1.0885014915        0.8375558205
 H          7.4784793550        0.5496761246        2.7254040311
 H          5.2604510825       -0.4654672193        2.3667569515
 H          1.8518248897       -0.2262426063       -0.5065716202
 H          1.4780842337        1.0857419670        1.5390744371
 H          1.6471855998        5.3506199538       -0.1403194308
 H          2.7232183321        5.7025499330        1.2072823223
 H          0.9836838673        5.6710422260        1.4716086272
 H          3.0483817054        4.1149037613        3.0540847704
 H          2.2745677282        2.5319637681        3.0583528137
 H          1.3091944430        3.9815015723        3.3313854137
 H          3.9937459369        3.6906288904        0.7034588668
 H          2.9044805282        3.1625987886       -0.5807106531
 H          3.2752953201        2.0873357894        0.7665037644
 H         -0.5142326742        4.5838285621        0.1206621294
 H         -2.4795821967        3.2694396150       -0.3471237554
 H         -4.4162303813       -0.1189540968       -1.8984242871
 H         -6.5079308853        0.9297126843       -2.6552281055
 H         -6.1840997570        3.8261261256        0.4848225366
 H         -4.1017279163        2.7645989528        1.2478514092
 H         -4.9238672231       -1.0644461926        0.2578946692
