89
 energy: -126.911950430287 gnorm: 0.000054227741 xtb: 6.7.1 (edcfbbe)
C           -3.28939006156630       -5.43935062420011       -1.15405741256579
C           -3.97828428437162       -4.50293673747476       -0.14921886440844
C           -5.30721716065910       -4.04552792504957       -0.75855453447532
C           -4.28331152813542       -5.27008161079976        1.14714898398261
C           -3.04698087538882       -3.34790936004031        0.17639952811976
C           -1.78783143437246       -3.59827336913414        0.70461738852038
C           -0.90423740514597       -2.56405279787068        0.97500785962817
C           -1.25884559158075       -1.22338343747510        0.77769349891832
C           -0.32793610193891       -0.17048813262863        0.96757707449439
C            1.05062695354803       -0.48295292555100        1.38294456996877
C            1.33036208348496       -0.86857896958997        2.69268545382251
C            2.63011212147263       -1.14947030275764        3.07378450586998
C            3.66334442347179       -1.06682225612970        2.15767979302128
C            3.39214603133487       -0.70831873460713        0.83910382353633
N            4.43293351380117       -0.65871897868627       -0.10107598366854
C            5.37370366528143       -1.64935277528434       -0.30708444032951
C            5.47367568208843       -2.90881444516177        0.26820064149506
C            6.50998524707900       -3.72632618173298       -0.14104895077713
C            7.42595201791908       -3.31247849184776       -1.10632480914033
C            7.31666129006770       -2.07124509633653       -1.70152174499862
C            6.28227982194832       -1.23221604599576       -1.30729302624462
C            5.86093349171855        0.07745834584611       -1.71994302144759
C            6.35203134025434        0.99115561766025       -2.64363808821047
C            5.69991498102362        2.19933982257881       -2.79105773676328
C            4.57762835099890        2.50477703629708       -2.02386235081759
C            4.07143309538943        1.61205686676455       -1.09854031524515
C            4.71185125477622        0.38917881247556       -0.95627120775814
C            2.08894484483067       -0.40791576460134        0.45984393560986
C           -0.71569136305031        1.18270616376259        0.76142652234933
C            0.16726200805274        2.23117347212665        1.04657575356165
C           -0.20745621132572        3.57416099632963        0.96674715398497
C            0.73779771996775        4.71587983170794        1.29926279485874
C            2.13726758000737        4.23602732404554        1.69494063607630
C            0.86941441301320        5.63014193253319        0.07162963413397
C            0.15603181090110        5.51210452612786        2.47805202169920
C           -1.51799171159939        3.84694201965094        0.59827283383322
C           -2.41766943238889        2.82771516499617        0.31049276398470
C           -2.04615328039536        1.48163514217046        0.34950965863149
C           -2.97561189896854        0.42144814592623        0.09575861461422
C           -4.31922161104602        0.72643767057573       -0.34701150838873
C           -4.54542909856948        1.57265656092989       -1.44890270476685
C           -5.81715142526238        1.85952313342864       -1.87931507819299
C           -6.92682879633895        1.32492963414058       -1.20649761798207
C           -8.22860569159319        1.62499887051117       -1.63401577334154
N           -9.29822841962038        1.87072339750332       -1.98425711835359
C           -6.71895084244596        0.48821496264084       -0.09891518844127
C           -5.44281131277938        0.19035702575516        0.31026377540554
C           -2.57270665999641       -0.94147514167572        0.30416688021000
C           -3.40508150614293       -2.01043188477198       -0.03175761062966
H           -3.95163033144334       -6.26430925270458       -1.40806731306576
H           -3.04587185301728       -4.89939081250733       -2.06709879932475
H           -2.37110875539708       -5.85368370785153       -0.74744192005336
H           -5.86026973280810       -3.41121418724141       -0.06953216844697
H           -5.92244461561019       -4.91636348899012       -0.97628606276191
H           -5.14922351890721       -3.50707605513017       -1.69067073790858
H           -3.37664410084766       -5.66994604789867        1.59287626704528
H           -4.75916053469236       -4.61195414388860        1.87180827253341
H           -4.95676076951143       -6.09910571896080        0.94045923252415
H           -1.46354861569052       -4.61015846389788        0.89308327108535
H            0.08358510527860       -2.79753507821419        1.34277698669097
H            0.52528217201199       -0.93030205726071        3.40980863674370
H            2.84235767674271       -1.43041522814351        4.09493602130907
H            4.68041882176661       -1.26928648025499        2.45741992190296
H            4.75969769786451       -3.24752947913260        1.00369992389632
H            6.61032512997433       -4.70995415419714        0.29452659445793
H            8.22472440563256       -3.97896677925862       -1.39722322420666
H            8.01605197124421       -1.75734979328205       -2.46210313424199
H            7.22838859592396        0.75873150169290       -3.23027174612735
H            6.06439224265876        2.92292770447325       -3.50547697595462
H            4.09517563945488        3.46212524450830       -2.15623139679583
H            3.20603763072655        1.86145720384622       -0.50423313904235
H            1.87347448967467       -0.14408061104142       -0.56505641067395
H            1.16321113606673        1.96751251608799        1.36103692063710
H            2.10215882652794        3.60539334612179        2.58073164230254
H            2.76360048057005        5.09657355045158        1.92157112289949
H            2.60922425125782        3.68665668260839        0.88427965323296
H            1.55923404273117        6.44414742645961        0.28425858948802
H           -0.08871330823546        6.06054198206585       -0.20661507113027
H            1.25022685867570        5.06791251116952       -0.77867055558947
H            0.82545430027053        6.32783704790004        2.74285653080382
H            0.03743072273147        4.86679076286443        3.34648191443982
H           -0.81430819771392        5.93476877543215        2.23260002149651
H           -1.87120108520159        4.86502777335937        0.54278898396813
H           -3.43702759219845        3.09427615569011        0.07666301206861
H           -3.69733598198248        1.96303229391947       -1.99202336637259
H           -5.97624220350763        2.49243361714533       -2.74089477983550
H           -7.57340381881990        0.08959539537566        0.42945011270081
H           -5.29266263749858       -0.42564686564466        1.18478543689684
H           -4.35633612694668       -1.78661758008798       -0.48213968577482
