107
 energy: -165.700062910642 gnorm: 0.000052545911 xtb: 6.7.1 (edcfbbe)
O           -6.60902741997984       -2.21070815080617       -0.96921129563894
P           -7.72967098072857       -1.40321162553426       -0.47497127239404
C           -7.67816390267794       -1.04557392058272        1.30886855702828
C           -6.90371895674228       -1.89003874379448        2.08948315973689
C           -6.80518867387742       -1.67664390850193        3.45262856206248
C           -7.48196091358142       -0.61698909436999        4.03426654880371
C           -8.25010614806486        0.23166263909314        3.25260112859403
C           -8.34934703239312        0.02098784795062        1.88934522264639
C           -9.34390310864226       -2.20461102383741       -0.74444896436421
C          -10.53918936786274       -1.67588006452137       -0.27424339906277
C          -11.72719682458349       -2.33869330666819       -0.52120507198902
C          -11.72627323704290       -3.52805335723761       -1.23392488165695
C          -10.53473097521476       -4.05883853720125       -1.69927430905176
C           -9.34486571067536       -3.39704855106355       -1.45284744015919
C           -7.87268459365117        0.20728332108012       -1.32059850844092
C           -8.84310205804892        0.59395736341484       -2.22528088707734
C           -8.72204369112910        1.81249440097789       -2.87488519342367
C           -7.63449187139292        2.63202574054801       -2.61973015626597
C           -6.65432740782775        2.25459479366618       -1.71661803734545
C           -6.77691253585874        1.03313378643229       -1.06963283133499
O           -5.95115625226490        0.56655419452645       -0.09583221911262
C           -4.60662064152523        0.83170857561060       -0.10612002041201
C           -3.86492416882340        0.94252351048536       -1.27577700004293
C           -2.50175933342227        1.15003561504794       -1.20337940046465
C           -1.85445957143171        1.25556354667314        0.02512428964876
C           -0.40510951377271        1.48888366532154        0.09206536402791
C            0.46788085665917        0.80872722932211       -0.75350394057887
C            1.82943152092238        1.02544471982569       -0.68518091316967
C            2.36058641995896        1.93223177127389        0.22581691094107
C            3.84955719692623        2.21202952791140        0.23913310542932
C            4.67854733682252        0.95753090349176        0.05829527614811
C            4.29291353953352       -0.22884846236320        0.67327010010504
C            5.07283856532297       -1.36360853633118        0.57392051158966
C            6.27056754920604       -1.32858280162122       -0.13377864684014
N            7.06956303354600       -2.47626299860395       -0.22866297652258
C            7.57792076629729       -3.01424077760858       -1.39361750169630
C            7.39794344573461       -2.60626234775587       -2.70757550544035
C            8.00479525142689       -3.34867515002192       -3.70218469459233
C            8.76773922931377       -4.47622548560928       -3.40607362948232
C            8.93198810518174       -4.89984798808932       -2.10258803423993
C            8.33159399530831       -4.17017205604337       -1.08500843502229
C            8.27478419921662       -4.32508429956478        0.34143016010162
C            8.82312525647460       -5.24474698812416        1.22574342723213
C            8.58470834671963       -5.08723858133284        2.57623266137683
C            7.82289920008596       -4.02108794928721        3.04966697254787
C            7.26665877338843       -3.09355684186991        2.19005407587693
C            7.48318961744136       -3.26004532560943        0.82960808893726
C            6.66735723511358       -0.14186764161383       -0.74112848523480
C            5.87665134392486        0.98699047058605       -0.64390815913295
C            4.32785799953602        2.89571515731133        1.50633456415193
C            4.34885087493581        2.40384679076753        2.79379852824413
C            4.85289819582561        3.20935838224123        3.80605063768306
C            5.33110968989828        4.48129597635199        3.53034000188430
C            5.31909129702760        4.97812223088363        2.23714456485548
C            4.81658089584562        4.17877418974441        1.22373492632836
C            4.68161498576864        4.42203574707054       -0.20320510427301
C            5.00259831221491        5.53091982672437       -0.96852573218610
C            4.76452113665038        5.48758463284091       -2.33263708234449
C            4.21423637595329        4.35905498595410       -2.92078308353463
C            3.88940860767599        3.24539947996592       -2.15793149825380
C            4.12956516300196        3.28038087011191       -0.80108274092279
C            1.49156457344125        2.62408432703441        1.05910802913791
C            0.12974971953498        2.39810333141701        1.00023902739324
C           -2.61028408496816        1.12827603990483        1.18896111888648
C           -3.97152024405224        0.91277103806239        1.12876024945147
H           -6.37339444196504       -2.69852169919274        1.60702163433242
H           -6.19871241285539       -2.33150476791548        4.06140777412154
H           -7.40528133477283       -0.44551594542811        5.09827877332372
H           -8.76769283759697        1.06388021224850        3.70811930537267
H           -8.92736628634060        0.69652067880162        1.27375009862944
H          -10.53784433632210       -0.75042248170641        0.28268506773151
H          -12.65842145643352       -1.92858681672287       -0.15749308446048
H          -12.65760229660492       -4.04132842061048       -1.42424648048485
H          -10.53442138591764       -4.98653945159002       -2.25271728657666
H           -8.40063065034762       -3.78880323310548       -1.80235699828418
H           -9.68334645787479       -0.05635019775014       -2.42274427418789
H           -9.47484783934396        2.12144363242807       -3.58417102875690
H           -7.54647994399956        3.58125725608595       -3.12709759367655
H           -5.81274774772678        2.89975652739047       -1.51041575094491
H           -4.35500132870224        0.84727511659902       -2.23347013209620
H           -1.93198938513980        1.24601569741748       -2.11580397157237
H            0.07559153615818        0.08706517703590       -1.45498514031351
H            2.48985686777737        0.47346689449836       -1.33854204727580
H            3.36257572316608       -0.27121198343212        1.22062437161831
H            4.75256861949907       -2.28626130047009        1.03449112308548
H            6.79511951028262       -1.74332147403992       -2.94777813596058
H            7.88211994652305       -3.05019438367925       -4.73303336446187
H            9.22792598654738       -5.02826178604823       -4.21210872624619
H            9.51069404053091       -5.78216868003846       -1.87405829869595
H            9.42665237431370       -6.06176706418465        0.85990112071037
H            9.00009599990370       -5.79252318442497        3.28068549990220
H            7.66672886620874       -3.91516750051976        4.11324268749811
H            6.69301116129416       -2.26026931248281        2.56731182538108
H            7.60534092237599       -0.10372135014248       -1.27459229726613
H            6.20096071330805        1.90370023125344       -1.11385870562822
H            3.97800595498473        1.41402879567902        3.01512010160715
H            4.87302114756362        2.83995683785310        4.82084594665478
H            5.71904014550615        5.09032077908078        4.33382328043538
H            5.69490067975236        5.96783871990583        2.02435545933335
H            5.42927842692381        6.41163818782779       -0.51208658877509
H            5.00886039992947        6.34270043970411       -2.94588610704044
H            4.03530468201955        4.34565325958953       -3.98590504528606
H            3.45987271120238        2.37077563651472       -2.62311984742575
H            1.88197317256028        3.34593485661691        1.76155722708610
H           -0.53120247527664        2.95130017995478        1.65153900569153
H           -2.12084321485946        1.17974547945681        2.15023677879263
H           -4.56181914782261        0.79472632346242        2.02480510478095
