  107
       -165.59404830
 O         -8.7111515857       -3.1088138396        0.5390837940
 P         -8.0997344667       -1.7808603917        0.4011233102
 C         -6.4429755782       -1.6689275770        1.1607003600
 C         -6.1271285195       -0.8373602008        2.2226950883
 C         -4.8273877122       -0.7975489229        2.6975383819
 C         -3.8480375357       -1.5863512331        2.1179196548
 C         -4.1698824819       -2.4382132578        1.0734758780
 C         -5.4670375279       -2.4816973030        0.5987215616
 C         -9.1234512654       -0.4512869953        1.1043418982
 C         -8.7968148097        0.8971405411        1.0219120788
 C         -9.6395395698        1.8400465365        1.5809406225
 C        -10.8069162493        1.4453370709        2.2164776734
 C        -11.1366520463        0.1019237403        2.2921104096
 C        -10.2960390384       -0.8448147021        1.7349997789
 C         -7.7979248687       -1.3565184425       -1.3460384847
 C         -8.5076357941       -2.0436360472       -2.3168619162
 C         -8.2607375022       -1.8207378182       -3.6595050364
 C         -7.2870935317       -0.9027263029       -4.0358407855
 C         -6.5654022320       -0.2125633098       -3.0818352665
 C         -6.8214132691       -0.4286405058       -1.7300781888
 O         -6.2092235433        0.2734709376       -0.7355199373
 C         -4.8722846423        0.5017290215       -0.7319751199
 C         -3.9277688400       -0.2508613288       -1.4629753358
 C         -2.5978840842       -0.0069251696       -1.3293726256
 C         -2.0801110669        1.0281556725       -0.4665509246
 C         -0.7108337540        1.3036700933       -0.3541067564
 C          0.2997473860        0.5217468680       -1.0204210004
 C          1.6254632672        0.8060589504       -0.9110137474
 C          2.0892473136        1.8871096012       -0.1315808780
 C          3.5472457505        2.2569746364       -0.1123612432
 C          4.4753665083        1.0663128659       -0.1119250739
 C          4.1645207276       -0.0617888319        0.6401658133
 C          5.0410536326       -1.1255394585        0.7147111023
 C          6.2513659952       -1.0814061893        0.0284135825
 N          7.1459664428       -2.1576173665        0.0999513023
 C          6.8348009222       -3.4839407069       -0.1207044031
 C          5.6279973235       -4.0583023816       -0.4949082884
 C          5.5945813746       -5.4278525417       -0.6761771054
 C          6.7317831280       -6.2127417759       -0.5004627904
 C          7.9413473255       -5.6438051195       -0.1514278004
 C          7.9998657522       -4.2700983107        0.0368969338
 C          9.0611992528       -3.3625093610        0.3758211950
 C         10.4081256315       -3.5326178249        0.6639868634
 C         11.1622881458       -2.4195433327        0.9814417602
 C         10.5855081447       -1.1524963691        1.0286658478
 C          9.2470059341       -0.9577591399        0.7456147709
 C          8.4900663472       -2.0690325647        0.4013162246
 C          6.5671867632        0.0439744360       -0.7270341965
 C          5.6891071631        1.1081975574       -0.7866651042
 C          3.9175815449        3.1600552411        1.0503407145
 C          3.9790111245        2.8497091155        2.3908989488
 C          4.3465390557        3.8448465937        3.2877935978
 C          4.6488058369        5.1237091108        2.8445496079
 C          4.5948440303        5.4394210568        1.4970307303
 C          4.2286569397        4.4508706798        0.5968199828
 C          4.0924700301        4.4803511913       -0.8475064111
 C          4.2688040599        5.5111658937       -1.7568791838
 C          4.0855332034        5.2488654385       -3.1037376019
 C          3.7301574222        3.9784387787       -3.5384590466
 C          3.5412452345        2.9442332098       -2.6341055192
 C          3.7300870861        3.1973957443       -1.2909666552
 C          1.1229868521        2.6843825546        0.5137229745
 C         -0.2056336703        2.4069781473        0.4234561703
 C         -3.0789558792        1.7533931406        0.2825254446
 C         -4.4044171962        1.4953646043        0.1593188544
 H         -6.8929168368       -0.2170475951        2.6668223585
 H         -4.5755067489       -0.1427502013        3.5191400723
 H         -2.8320191218       -1.5389454411        2.4810385124
 H         -3.4074619055       -3.0605024967        0.6278803099
 H         -5.7419279747       -3.1386321252       -0.2170628012
 H         -7.8883529142        1.2007621139        0.5259169923
 H         -9.3870518918        2.8892654113        1.5208827194
 H        -11.4601408003        2.1877664985        2.6514195335
 H        -12.0475280064       -0.2054252802        2.7847003816
 H        -10.5286698105       -1.8990012407        1.7795009205
 H         -9.2385811394       -2.7697830741       -1.9915240210
 H         -8.8153367441       -2.3594619955       -4.4122089543
 H         -7.0916333069       -0.7213084393       -5.0821287174
 H         -5.8203976304        0.5156663482       -3.3697225762
 H         -4.2731624085       -1.0484287862       -2.1050877494
 H         -1.9120606299       -0.6163899218       -1.8934324108
 H          0.0060768666       -0.3267471771       -1.6162910474
 H          2.3476325659        0.1851367349       -1.4232949678
 H          3.2256268440       -0.1043392921        1.1732037385
 H          4.8023974602       -1.9874404678        1.3198827965
 H          4.7457743903       -3.4559970459       -0.6504140928
 H          4.6666951251       -5.8996585940       -0.9637794869
 H          6.6642197777       -7.2800666724       -0.6489848010
 H          8.8258920559       -6.2506509196       -0.0307002994
 H         10.8519668764       -4.5164261336        0.6439322208
 H         12.2125455840       -2.5298505482        1.2065256373
 H         11.1968835044       -0.3034254634        1.2962234423
 H          8.8044793231        0.0252369447        0.8031832637
 H          7.4965653328        0.0736894685       -1.2758485040
 H          5.9457904078        1.9793327003       -1.3713245320
 H          3.7447883050        1.8554862551        2.7416678146
 H          4.3970027794        3.6191011292        4.3427721430
 H          4.9309626941        5.8820646400        3.5603649378
 H          4.8328553389        6.4355787515        1.1549219467
 H          4.5434325555        6.5000390542       -1.4208104817
 H          4.2191186678        6.0401994908       -3.8267617113
 H          3.5971148641        3.7941365160       -4.5943044863
 H          3.2581588583        1.9607084534       -2.9784335611
 H          1.4514077321        3.5335723383        1.0958915140
 H         -0.8969533829        3.0557780645        0.9346518687
 H         -2.7692608990        2.5132532701        0.9795495060
 H         -5.1339213375        2.0400703825        0.7392220827
