107
 energy: -165.595927377544 gnorm: 0.000117237471 xtb: 6.7.1 (edcfbbe)
O           -8.05902602915930       -2.48160968895442       -1.91626469155274
P           -7.59092004990311       -1.58190843124891       -0.85441191268071
C           -5.79844514337178       -1.73004066908516       -0.54568008463454
C           -5.24412404312591       -2.09994532385034        0.66890587686931
C           -3.86807115670832       -2.17774852221777        0.79717870230835
C           -3.04853311569163       -1.89138095198717       -0.28169912011335
C           -3.60359180909631       -1.54092340295587       -1.50145726188839
C           -4.97736304336471       -1.46276786106972       -1.63303626290751
C           -8.45374772097376       -1.83685221375890        0.72689901254681
C           -8.28605404689143       -1.01678187615232        1.83588057281836
C           -8.98931176199789       -1.28584747584784        2.99596279465856
C           -9.85830383182926       -2.36470158062597        3.05262524624280
C          -10.02873136807425       -3.17923152667233        1.94534052763221
C           -9.32725914933413       -2.91407012263784        0.78277945195467
C           -7.83665364954862        0.16945930994638       -1.31233524260954
C           -8.75457840181882        0.44556965753518       -2.31420601070544
C           -8.94814964443511        1.74387555523968       -2.74951991795285
C           -8.21445187380944        2.77431480937371       -2.18327902641824
C           -7.29378428340391        2.51310693453624       -1.18376013338354
C           -7.10556373158550        1.20949171614447       -0.74308753504691
O           -6.26655346197591        0.90598604378207        0.29997070354857
C           -4.93812888232761        1.23010446050845        0.23965328886947
C           -4.28828171293397        1.62759156057977       -0.92154572682212
C           -2.92430932221742        1.84173711979657       -0.90336682281990
C           -2.17930273273560        1.65150507137249        0.25662023132592
C           -0.72249883985865        1.83157032037388        0.25283558559759
C           -0.12777546762907        2.88907721362886       -0.43055622218974
C            1.24437990830347        3.04665732025428       -0.43568796885045
C            2.06496781719273        2.14024802520849        0.22374267461970
C            3.56505961657503        2.34334560400760        0.27380774119476
C            4.33554523133408        1.04210788688487        0.21244095043517
C            3.91198810987491        0.01330638298511       -0.62387695920405
C            4.64321590726734       -1.15089339354975       -0.74049378911753
C            5.82054809325236       -1.31178358662474       -0.01437124004668
N            6.55625483411416       -2.50023767462506       -0.11862836038419
C            7.90983352279874       -2.59463182617796       -0.36938024012886
C            8.83390841762034       -1.59037419691122       -0.62275401189569
C           10.14042923693900       -1.96517693131190       -0.87195896627443
C           10.52463231785387       -3.30412684480093       -0.87967624854340
C            9.60426344894830       -4.30920504528534       -0.65295915161188
C            8.28575194002196       -3.95781287131062       -0.40022325059482
C            7.09097550285180       -4.71588736742651       -0.14973860738915
C            6.82616748256989       -6.07392640770281       -0.04264900440237
C            5.53378135847015       -6.47616165045609        0.23420559015496
C            4.51661234722778       -5.54261171648583        0.41870789621007
C            4.75576185878675       -4.18537707870424        0.31739431825117
C            6.04710298740782       -3.77589921640509        0.01490956014163
C            6.25676670585834       -0.28242122390551        0.81402466625904
C            5.52427722401918        0.88415240067144        0.91515739881469
C            3.86758090445005        3.17605362658824        1.50493088505810
C            3.60714931320160        2.90646182476016        2.81085522174763
C            3.96877260360410        3.84747103719282        3.79431265368132
C            4.58499965610194        5.06663253476284        3.43037446360298
C            4.85092379018327        5.37071156158693        2.13129403381690
C            4.49924430815095        4.42648688784021        1.11044245791656
C            4.64901243432096        4.45354509334481       -0.26007186340852
C            5.21925333509572        5.43010085451819       -1.14240659048842
C            5.22879262233245        5.18411610055188       -2.48027318697234
C            4.69422293310101        3.99055022248917       -3.01780210366167
C            4.13360433346804        3.01325731721153       -2.17311591188893
C            4.09869115506172        3.23360567395199       -0.83277257399973
C            1.47384997672604        1.08834681458856        0.91642718479139
C            0.10270191065886        0.93655228704871        0.93158456968362
C           -2.84798640004093        1.26368681928643        1.41651815618653
C           -4.21048755483161        1.06068193269584        1.41394051847450
H           -5.88649847799447       -2.31815283032569        1.51021870487498
H           -3.43329941904915       -2.46079226602770        1.74495107705381
H           -1.97507334452129       -1.94341502706802       -0.17466873184529
H           -2.96429741775462       -1.32433149421327       -2.34469914238292
H           -5.43360049438589       -1.19637241285518       -2.57788177049750
H           -7.60901524270749       -0.17851211675280        1.78680901343501
H           -8.86124125484256       -0.65133128594680        3.86126534591759
H          -10.40471436259117       -2.56817760393862        3.96214079000514
H          -10.70772058291799       -4.01823052465896        1.98887181695953
H           -9.44325582088267       -3.53061779778323       -0.09691231846337
H           -9.29366091498199       -0.38230457012474       -2.75160840332584
H           -9.66286006072393        1.95395350987134       -3.53064320783285
H           -8.35758379593746        3.79027642823986       -2.51997849110105
H           -6.72031712531314        3.31212575123513       -0.73589978692000
H           -4.84291012346221        1.74510700262646       -1.84094359809964
H           -2.42458698966476        2.12730919995180       -1.81713254218417
H           -0.74937006495378        3.60872987480363       -0.94307786423065
H            1.68600242256028        3.88193711850555       -0.95979218561140
H            2.99671183166092        0.12452656550601       -1.18658289097695
H            4.31561654829003       -1.93641970318137       -1.40515259164065
H            8.54156031968798       -0.55132871647413       -0.63739748606745
H           10.87937148678502       -1.20268114552925       -1.06899337593839
H           11.55614591900665       -3.55592380856746       -1.07571982112958
H            9.89896132658320       -5.34744950806463       -0.67538685672855
H            7.61744977994233       -6.79711235762470       -0.16965475923635
H            5.30596431015008       -7.52819046342013        0.31873778887470
H            3.51934643552188       -5.88697713031566        0.64940550736279
H            3.96478102265098       -3.46887486742853        0.47941125592374
H            7.16206160425199       -0.40779539798929        1.38898194898613
H            5.87263550387339        1.67785354174787        1.55942405875844
H            3.13362324276683        1.98162656703693        3.10701549821371
H            3.77349497351063        3.63807094997761        4.83382298562818
H            4.84319807654461        5.76517597393659        4.21364067093228
H            5.31478083314471        6.30405924503855        1.85206305695898
H            5.63399057289596        6.33719712674636       -0.73076264621190
H            5.65415272160237        5.90804817899294       -3.16080518997106
H            4.71568112597025        3.82912389452859       -4.08363664623500
H            3.73107171990598        2.10661451958496       -2.60135976006881
H            2.09630978560431        0.37485273462645        1.43759043780654
H           -0.33811060084149        0.10138407092201        1.45656419322611
H           -2.29345315623865        1.13454355078203        2.33388494363249
H           -4.72949667279868        0.75438663911183        2.30874052172817
