67
 energy: -106.958745003937 gnorm: 0.000036019115 xtb: 6.7.1 (edcfbbe)
C            8.89632283770461       -3.17423959002235        1.32729892697765
C            8.88063732710805       -1.84262435242491        1.71301350585222
C            7.84304270679095       -1.01639558138951        1.32449757230592
C            6.80384378552928       -1.51893323886279        0.54026816517743
C            5.67625775419713       -0.68204595813962        0.15784775994416
N            4.42685362023455       -1.15735554802115        0.21504083877461
C            3.62112554539980       -0.13674272323193       -0.09517236030461
C            2.22676372283925       -0.18947390398730       -0.13509956159159
C            1.53281015261514       -1.39313130961433        0.19949810098685
C            0.17670289877565       -1.39505554804451        0.24499974097995
C           -0.56242932261903       -0.20836982843671       -0.05101695826026
C           -1.99165882916669       -0.15535939789358       -0.04383090039986
C           -2.68743421243125        1.06948441855466        0.08151213393075
C           -4.05668876551130        1.11950014320103        0.11742514649449
C           -4.81622995948205       -0.05328427692802        0.00748661383903
N           -6.20761293870840       -0.00290855081928        0.03394643193280
C           -7.05643674325281       -0.64304635573826       -0.85024876951504
C           -6.75464496423799       -1.40328856356378       -1.97269373123675
C           -7.80832503981332       -1.90748343531847       -2.71341104148338
C           -9.13151646287473       -1.65433629533884       -2.36063783171240
C           -9.43819907065932       -0.87099673984453       -1.26190685346034
C           -8.39780079101801       -0.35676760037555       -0.50299786666659
C           -8.34654776371540        0.49559822232524        0.65598917496854
C           -9.32011137009147        1.07515000131883        1.45547843160383
C           -8.91945687829469        1.83368191292419        2.54124388471775
C           -7.56955874326616        1.99889675023642        2.84076639164245
C           -6.58147750660688        1.42865894480199        2.05875064452152
C           -6.97646262802244        0.69201879711303        0.94964038491670
C           -4.14788920404806       -1.27712593711933       -0.13162667583629
C           -2.77827508955377       -1.32602256106345       -0.15024899293098
C            0.23071579184818        0.91104241877304       -0.42323232596649
N            1.52431831669665        0.92713982487426       -0.47888231631698
O            4.31816927859301        1.01348059949996       -0.35830389017682
C            5.63960217111322        0.67674261503628       -0.22940516452506
C            6.63361145376185        1.64291493198794       -0.56032648144660
C            6.27467575278332        3.00317438002990       -0.63957825973093
C            7.21437239875345        3.95815895259894       -0.95529343301865
C            8.52980187020065        3.59130430996833       -1.21356707282329
C            8.89143813491203        2.25006716166831       -1.16571193556795
C            7.96340538428785        1.28311631203926       -0.84875796470035
C            6.81280369686829       -2.86567116216319        0.17881617067477
C            7.85791874139222       -3.68397878632751        0.56352461124907
H            9.71202870106888       -3.81466511836882        1.62857778402872
H            9.67917941569408       -1.44633880228201        2.32293935522972
H            7.82152870884042        0.01661891546956        1.64003366508005
H            2.12483516232678       -2.25518076210870        0.46110352582564
H           -0.34680773191367       -2.28731139723027        0.55285900551522
H           -2.13044137065483        1.98916620970025        0.17003865099532
H           -4.56180474137703        2.07057525273216        0.19776569853984
H           -5.73332278941540       -1.58431777086849       -2.27009895132593
H           -7.59933358305963       -2.50503636209454       -3.58833523122888
H           -9.92723675881523       -2.06664195164047       -2.96303199985800
H          -10.46399893405500       -0.65793361490799       -1.00245532935031
H          -10.36715417282174        0.93019520002351        1.23706556442961
H           -9.66181657616999        2.29587335857701        3.17473623288123
H           -7.28689430244339        2.57970642109701        3.70621588572131
H           -5.53973851614424        1.54400361691058        2.31469279120612
H           -4.72304309455319       -2.18917500701660       -0.19066108401231
H           -2.29305488923714       -2.28310041260380       -0.25929062518746
H           -0.24436409759545        1.82168728096586       -0.76615288021518
H            5.25120903809269        3.28077233074701       -0.43600947230062
H            6.92575572199335        4.99823496590463       -1.00177088912224
H            9.26437480303816        4.34300882347056       -1.45987361636946
H            9.90777567270991        1.95926463920397       -1.38810121626225
H            8.24469409824999        0.24192531411286       -0.84504901340986
H            5.99383680897343       -3.25015874627525       -0.41015350909770
H            7.86200293117582       -4.72320220871468        0.26907652528475
