  114
       -177.90681447
 C          2.1475328170       -2.5146070850       -1.7792127282
 C          1.0451134133       -1.8194370423       -2.2497222057
 C         -0.2261449836       -2.1500125531       -1.8179684665
 C         -0.4097769976       -3.1967395835       -0.9171243157
 C         -1.7309868911       -3.6255797202       -0.4821541814
 N         -2.0681804589       -4.8837670031       -0.3460785988
 C         -3.3741510869       -4.8828006026        0.0282491788
 C         -4.2185483077       -6.0032473739        0.2639071410
 C         -3.7464500839       -7.3108796145        0.1099268830
 C         -4.5840405887       -8.3787113541        0.3136526313
 C         -5.9107934793       -8.1487082150        0.6721643501
 C         -6.3840158147       -6.8672286789        0.8315395586
 C         -5.5575685156       -5.7493060432        0.6401673650
 C         -6.0214812207       -4.3849981058        0.8263358596
 C         -7.3225862848       -4.1029408363        1.2661976135
 C         -7.7582409590       -2.8166049509        1.4802717679
 C         -6.8979856844       -1.7437233889        1.2701984000
 C         -5.6187725019       -1.9754001755        0.8294350576
 C         -5.1601201443       -3.2785296474        0.5894621827
 C         -3.8424565892       -3.5747777212        0.1426472728
 N         -2.7768093766       -2.7753887087       -0.2018778902
 C         -2.6973420925       -1.3681648910       -0.1882381432
 C         -3.3125314748       -0.6164759104       -1.1900554456
 C         -3.2027904169        0.7568816650       -1.1855966600
 C         -2.4861549056        1.4004344259       -0.1716832183
 N         -2.3424021970        2.7883089401       -0.1765670323
 C         -1.1106146193        3.4782262942       -0.1283500544
 C          0.1768707877        2.9283664424       -0.1900839982
 C          0.4988736971        1.6046351067       -0.6088206177
 C          1.7734838381        1.1377643870       -0.5418732820
 C          2.8577682927        1.9403433477       -0.0972920794
 C          4.1801775065        1.4118248296       -0.0068776090
 C          4.4145966115        0.0180255997        0.1010113542
 C          5.6789476688       -0.4976817965        0.1789416768
 C          6.8032592264        0.3440843482        0.1528357522
 N          8.0891445989       -0.1777207407        0.2274990784
 C          8.3832206267       -1.4133339516       -0.3560990972
 C          9.2812756859       -2.2887000517        0.2575672371
 C          9.5686680847       -3.5078646010       -0.3230421680
 C          8.9656872330       -3.8778565652       -1.5149881794
 C          8.0716475748       -3.0134338776       -2.1270859077
 C          7.7815822757       -1.7891552318       -1.5587195611
 C          9.0950550838        0.5353141860        0.8882268877
 C          8.8049474893        1.2473999980        2.0533903865
 C          9.7983910673        1.9566526069        2.6983205367
 C         11.0916574727        1.9651524711        2.1994977618
 C         11.3853559772        1.2565603551        1.0449977568
 C         10.3986056611        0.5475397987        0.3892376976
 C          6.5923382196        1.7293288543        0.0521509434
 C          5.3266895053        2.2430068654       -0.0215243924
 C          2.5489057041        3.2952978461        0.2147031651
 C          1.2767951499        3.7667244259        0.1690991408
 N         -1.3193512634        4.8041545717       -0.0715006027
 C         -2.6322495490        4.9896597367       -0.1289017959
 C         -3.3300641739        6.2322405351       -0.1748507965
 C         -2.6322257822        7.4418162523       -0.1992679162
 C         -3.3112641225        8.6352954269       -0.2897358661
 C         -4.6996290143        8.6221455793       -0.3659290105
 C         -5.3977468321        7.4331731019       -0.3356229727
 C         -4.7420531721        6.1994374442       -0.2281599618
 C         -5.4480435952        4.9314380778       -0.1447368649
 C         -6.8425794383        4.8773098006       -0.0833372160
 C         -7.5290666823        3.6893769075        0.0483583981
 C         -6.8273413195        2.4903361813        0.1557736048
 C         -5.4590519904        2.4937938125        0.0935341610
 C         -4.7330597725        3.6908070126       -0.0873182526
 C         -3.3271553905        3.7494048152       -0.1695800892
 C         -1.8793391199        0.6426672079        0.8343944720
 C         -1.9764270004       -0.7319371237        0.8180771300
 C          0.7023648417       -3.9058978196       -0.4646604325
 C          1.9714763471       -3.5588071556       -0.8854050836
 H          3.1393535576       -2.2476950088       -2.1152431134
 H          1.1738576213       -1.0186243426       -2.9636898114
 H         -1.0770787455       -1.6122971464       -2.2081169848
 H         -2.7147157642       -7.4433090905       -0.1766637233
 H         -4.2241905152       -9.3900365838        0.1952776930
 H         -6.5760803457       -8.9859189515        0.8272481625
 H         -7.4189546976       -6.7389467691        1.1065720236
 H         -8.0113324326       -4.9102476451        1.4561139273
 H         -8.7675474910       -2.6395734251        1.8216914425
 H         -7.2315949437       -0.7342128216        1.4599509958
 H         -4.9493956397       -1.1431693285        0.6808013073
 H         -3.8680315988       -1.1198472291       -1.9678857341
 H         -3.6602722018        1.3446059587       -1.9676303745
 H         -0.2622037187        0.9738430188       -1.0383777672
 H          1.9707621830        0.1368021339       -0.8917985196
 H          3.5760686611       -0.6570333528        0.1721754587
 H          5.8228529021       -1.5629071688        0.2908791851
 H          9.7418382804       -2.0074584083        1.1932442575
 H         10.2629084229       -4.1775818399        0.1623198972
 H          9.1910942467       -4.8331036450       -1.9635488234
 H          7.6026343451       -3.2920023390       -3.0590463871
 H          7.0981509801       -1.1085911177       -2.0446901438
 H          7.8001966463        1.2291632743        2.4491610344
 H          9.5634891796        2.4996813767        3.6016515595
 H         11.8657545141        2.5190453436        2.7079731578
 H         12.3895741719        1.2618916014        0.6482643132
 H         10.6254431020        0.0064715941       -0.5177354986
 H          7.4476140566        2.3881252803        0.0050393324
 H          5.2078692124        3.3078242658       -0.1439918865
 H          3.3382054578        3.9539748279        0.5432277476
 H          1.0489916638        4.7853835504        0.4396696876
 H         -1.5550699624        7.4032230029       -0.1525924684
 H         -2.7753494386        9.5725420044       -0.3082576216
 H         -5.2412048831        9.5534826875       -0.4492538625
 H         -6.4732721565        7.4761542076       -0.4018308183
 H         -7.4163149890        5.7890013132       -0.1277794026
 H         -8.6079853767        3.6907771366        0.0878708083
 H         -7.3606140138        1.5609176232        0.2900745701
 H         -4.9249069050        1.5654967486        0.2098810844
 H         -1.3290813258        1.1438546873        1.6155385045
 H         -1.5048151122       -1.3236201807        1.5880618391
 H          0.5490654197       -4.7291307005        0.2155391628
 H          2.8278916232       -4.1081912474       -0.5223714466
