94
 energy: -157.728064504450 gnorm: 0.000046820120 xtb: 6.7.1 (edcfbbe)
C            9.60155711565700        2.99515048489964       -0.01733248209407
C            8.65230117716108        3.20087294285285       -1.00410540440324
C            7.47795942624759        2.47109583395861       -1.00033546755193
C            7.24259794598354        1.51636244395005       -0.01498787973884
C            5.98553247424579        0.74830392365325       -0.01340539981665
C            4.79091501081755        1.41613296610171       -0.10945756835985
C            3.56577600050028        0.72453108793895       -0.05838764504073
N            2.41065074340605        1.40006658022030       -0.14552111863843
C            1.28889797254632        0.70664197854463       -0.08710104500903
C            0.02978227208412        1.40326299871884       -0.15605325950675
C           -0.04017335479476        2.80315671657539       -0.23786688948485
C           -1.26247892610512        3.42047904501309       -0.26609624068698
C           -2.42284665754847        2.61945022534280       -0.19946580961939
N           -3.67632735264953        3.21781559616064       -0.15331401135536
C           -4.67027079490938        2.82998493390791        0.76789032732180
C           -4.67738776992453        1.59806552371914        1.40759634302708
C           -5.64625829292634        1.29713423975374        2.35159418757943
C           -6.63236023209217        2.21268209650856        2.66187884808884
C           -6.64674755354437        3.44175113810391        2.02308676270252
C           -5.67251894642326        3.75415023529436        1.09083963583581
O           -5.74129680228838        5.00516640224506        0.52435484841141
C           -4.97346682384674        5.21600350612135       -0.58829486904887
C           -5.24820879076733        6.33515497965408       -1.35628928902253
C           -4.52172156247281        6.58332918087522       -2.50926285370123
C           -3.54688796510452        5.68912360718891       -2.91026862570233
C           -3.27104953219488        4.56795302580741       -2.14578651011980
C           -3.95009354557261        4.33545093223912       -0.95504581473015
N           -2.36486752870093        1.30266912640068       -0.14313303744780
C           -1.18203801450504        0.69381041694024       -0.11885723601644
C           -1.17047624958521       -0.75681080890065       -0.04227632232715
N           -2.33782657561094       -1.38768860305468       -0.09836370231653
C           -2.38177092624672       -2.70793244913507       -0.01758879060168
N           -3.61610320560550       -3.30287764855481       -0.11654675316388
C           -4.83252318279107       -2.60594141876624        0.08120533852285
C           -5.07152564506565       -1.32144340034965       -0.38583138434060
C           -6.28371639951144       -0.70344377744347       -0.12481343627083
C           -7.26554953623781       -1.35419738543549        0.59899333758088
C           -7.05391060990272       -2.65020509793050        1.03670054677278
C           -5.84899989066418       -3.27797644930632        0.76847618786221
O           -5.70119889423098       -4.58486280311609        1.17867507459004
C           -4.81454488245976       -5.31816550468436        0.43783058382537
C           -4.98258796741049       -6.69231177560729        0.36739697636766
C           -4.13609720959730       -7.44987204382395       -0.42308434018794
C           -3.15456518124688       -6.83065486789791       -1.17737337040853
C           -2.98005849964026       -5.45953295218644       -1.10516518180490
C           -3.77431088722042       -4.69539032550404       -0.25887489967518
C           -1.21359697401357       -3.47184804709482        0.22108987845330
C           -0.00594068543834       -2.82994386373108        0.25267126991857
C            0.05241170426259       -1.43697885651455        0.08057463386619
C            1.29888178270577       -0.71951144015145        0.05416276397872
N            2.43238687905825       -1.39152422595520        0.14790940639089
C            3.57623799894513       -0.69384449764349        0.09849109336661
C            4.81265602226452       -1.36192699912309        0.18426572726620
C            5.99668434134111       -0.67160601098086        0.12127926250419
C            7.26749976111047       -1.41586726416373        0.15661881836931
C            8.24616120970250       -1.20292834079311       -0.81077055373582
C            9.42890740378823       -1.91694862562231       -0.77774768304444
C            9.65321630264436       -2.84962826601949        0.22132619114883
C            8.68192198404065       -3.07436986229073        1.18217133805542
C            7.49442433129207       -2.36701868521469        1.14736515183854
C            8.19882453612924        1.32256129159188        0.97847069466148
C            9.36826481279964        2.05893091896584        0.97635862889822
H           10.51913029251897        3.56471640324049       -0.02094093004574
H            8.82788332741893        3.93190760288907       -1.77997991731746
H            6.74188554980696        2.62376363180936       -1.77681455343979
H            4.76327586000688        2.49171738351499       -0.19916021153992
H            0.88057597700236        3.36555249904404       -0.25487044911862
H           -1.34622550200338        4.49575485454639       -0.30045426810686
H           -3.91917443680577        0.87513874392747        1.15867050885292
H           -5.62405361425145        0.33306374783266        2.83543763585994
H           -7.39013279325289        1.98054739721923        3.39385788456633
H           -7.39822103160112        4.18352391149019        2.24260978917736
H           -6.03180827323250        7.00025698722934       -1.03038698060236
H           -4.73212677777764        7.46347543791113       -3.09621704067362
H           -2.99607934805978        5.85613544850453       -3.82299522625263
H           -2.51977698522475        3.86495841059985       -2.47159743723041
H           -4.29670726748834       -0.80062696039470       -0.91947828616576
H           -6.45377854826096        0.29827531595031       -0.48637627167126
H           -8.20127517516363       -0.86252001945434        0.81524295972911
H           -7.80670984988655       -3.19267661866678        1.58641441936760
H           -5.77782864541223       -7.14544299104888        0.93729461404225
H           -4.26066143173565       -8.52055389059453       -0.46638105024667
H           -2.51914785690513       -7.41357664332083       -1.82600545694890
H           -2.22321538906504       -4.97432273212019       -1.70232809609785
H           -1.27695183509213       -4.53245280482620        0.40347008317308
H            0.91454848586273       -3.36770667434852        0.41962856315084
H            4.80296463734966       -2.43784749270112        0.27354998779575
H            8.07135218726555       -0.48432539591566       -1.59795090116204
H           10.17959783830579       -1.74445033325087       -1.53500552704606
H           10.58105694118253       -3.40162072497388        0.24926291260922
H            8.85051486708056       -3.80275976865600        1.96206680486424
H            6.74087917110139       -2.53440208037632        1.90378211513321
H            8.01660847398503        0.60121574225683        1.76145623632470
H           10.10145579247174        1.90128653045811        1.75372510679217
