94
 energy: -157.728081680234 gnorm: 0.000027399654 xtb: 6.7.1 (edcfbbe)
C            9.86976153052252        3.03537828164104        0.30885155792044
C            8.93872857601947        3.30007117583964       -0.68122153006577
C            7.76938492267744        2.56536949390137       -0.74858142702871
C            7.52109077156531        1.54702542746892        0.16744495316468
C            6.26926453720951        0.77390494244259        0.09419310394764
C            5.07232332958937        1.44028736643076        0.01912086176545
C            3.85095781549525        0.74039662600213        0.00245000599944
N            2.69314778061822        1.41416463748044       -0.06005385801896
C            1.57497636200409        0.71262967419829       -0.06649407507505
C            0.31269953111620        1.40575162162881       -0.10740924313515
C            0.23339143835768        2.80751678267871       -0.09006788863405
C           -0.99279047776982        3.41789613459189       -0.08934085517048
C           -2.14858682729331        2.60718986532830       -0.09659200138759
N           -3.40711658534570        3.19053231943336       -0.01925402261542
C           -4.41169600545699        2.71874074190591        0.85054601173852
C           -4.42507742027087        1.43333813619850        1.37460311745955
C           -5.40460983351557        1.04742885356376        2.27562668543795
C           -6.39558805526632        1.93048393702821        2.65648444408732
C           -6.40444709965813        3.21247026173025        2.13195790085646
C           -5.41961035469355        3.60884495808817        1.24377688438139
O           -5.48423425414015        4.90593566711095        0.79184175145021
C           -4.70825397840344        5.21471959176975       -0.29177461077253
C           -4.98066491052965        6.39533580471533       -0.96250444188778
C           -4.24557703827126        6.74413658756077       -2.08346507305049
C           -3.26452070539353        5.89047262911255       -2.55215880944127
C           -2.99100054886924        4.70822747489902       -1.88510057203868
C           -3.67874315214926        4.37210998164968       -0.72446367821434
N           -2.08097003114391        1.29027477460642       -0.13719150152123
C           -0.89453276232218        0.68857054427542       -0.13883768380826
C           -0.87503500317509       -0.76368787839199       -0.16051795302640
N           -2.03747688006384       -1.39500186675875       -0.27616002780155
C           -2.07578908954994       -2.71801494080364       -0.27892723032814
N           -3.30678716409925       -3.30702685101120       -0.43528885420624
C           -4.52570697978913       -2.61444369886921       -0.23639348650368
C           -4.75368478108731       -1.31515959375559       -0.66639725544099
C           -5.96911444751224       -0.70284635387673       -0.40766643346558
C           -6.96561725269533       -1.37481761445918        0.27568142211250
C           -6.76471962203671       -2.68491901324052        0.67466883087355
C           -5.55572727423810       -3.30623622205256        0.40931927714207
O           -5.41653965874327       -4.62613004582203        0.77872239719307
C           -4.51898259537012       -5.33628207354160        0.02841004157840
C           -4.68841955003931       -6.70689133986985       -0.09071617488920
C           -3.83130228704074       -7.43935214931727       -0.89328570204152
C           -2.83788703419410       -6.79732513230771       -1.61208402520141
C           -2.66166745545360       -5.42980077261543       -1.49090662065176
C           -3.46636819031829       -4.69309079097471       -0.63039790405271
C           -0.90762670417372       -3.48994257266229       -0.06835266453192
C            0.29593399617227       -2.84554443962076        0.02220688489979
C            0.34965913735774       -1.44436094201313       -0.06122945542073
C            1.59172281116555       -0.71990660980933       -0.01992289132156
N            2.72772838371191       -1.39055313625432        0.04929004954523
C            3.86778929600211       -0.68508854201875        0.06637780656620
C            5.10669184435819       -1.35085527637669        0.13143097314661
C            6.28717138553226       -0.65164851489443        0.13625726275615
C            7.56196234686146       -1.38984304690126        0.14755632521767
C            8.55722558418825       -1.10911555096813       -0.78495671286449
C            9.74382986514205       -1.81741528794237       -0.77571830074508
C            9.95545866453021       -2.81194355766803        0.16474918434766
C            8.96779286249776       -3.10392896166169        1.09017181614636
C            7.77650875172283       -2.40220479827683        1.07860903722216
C            8.45892563085437        1.29376425539736        1.16505150949579
C            9.62325233677018        2.03494816357535        1.23444715308546
H           10.78340242313143        3.60889640167541        0.36082532338551
H            9.12462839536531        4.08125431026213       -1.40400846614688
H            7.04763255440098        2.76459579211599       -1.52795112248893
H            5.03939021715565        2.51927647488157       -0.00071378584683
H            1.15009826350186        3.37561282827212       -0.05393044998506
H           -1.08294882559442        4.49229393278132       -0.04540030542569
H           -3.66241954444699        0.73670970721913        1.07047802975113
H           -5.38654576696768        0.04332186415529        2.66994025876357
H           -7.16145347668805        1.63234252461286        3.35540580413845
H           -7.15968300642260        3.93082332728169        2.40895547722795
H           -5.76918169881264        7.02764012749464       -0.58694931462998
H           -4.45410428287833        7.67120001498386       -2.59388131213431
H           -2.70694438907363        6.13734370482617       -3.44239005667353
H           -2.23461329786590        4.03797797671823       -2.26382377114003
H           -3.96847569289847       -0.77917572862628       -1.16879810368279
H           -6.13027478138157        0.31092162740106       -0.73848938836636
H           -7.90420829694886       -0.88808512795139        0.49059343095523
H           -7.52892786715167       -3.24312885705834        1.19191730403196
H           -5.49312050316900       -7.17707383931087        0.45141824151185
H           -3.95694945974518       -8.50772366515043       -0.97421450995960
H           -2.19432867814264       -7.35958703262427       -2.27085032216984
H           -1.89597372396120       -4.92644835673202       -2.06110145755217
H           -0.96741547904220       -4.55988588504164        0.04834577266839
H            1.21649036620018       -3.38877770404563        0.17005016602482
H            5.10233011857926       -2.43034873437397        0.15015552314248
H            8.39250657954335       -0.34168472818931       -1.52692887225031
H           10.50749373070643       -1.59192962652271       -1.50558719699040
H           10.88625682585361       -3.35956246134334        0.17459796937466
H            9.12651728237809       -3.88060640285173        1.82420094580157
H            7.00997072518910       -2.62255493172368        1.80791356391522
H            8.26616450849199        0.52177726557190        1.89545851878169
H           10.34208995476773        1.83070922273274        2.01437418814859
