94
 energy: -157.685379511647 gnorm: 0.000092107687 xtb: 6.7.1 (edcfbbe)
C            9.90713759048401        2.91989312040442       -0.59335179231756
C            9.70247206377554        1.75785827702300       -1.31897294159287
C            8.53716544595676        1.03293357395121       -1.15882003834125
C            7.55568241136845        1.46122384557787       -0.26786418488888
C            6.30578210492132        0.70265169779629       -0.10118657763576
C            5.09535187895255        1.37885822075861       -0.18612728808287
C            3.87422149042269        0.72069485080073       -0.09504219530331
N            2.70452431040836        1.35436819755264       -0.18788939428337
C            1.54909945920941        0.71141201086373       -0.09641130161633
C            0.30897222691045        1.40220175637420       -0.17090818101988
C            0.24630970372959        2.79921696883326       -0.34707184794956
C           -0.96534833456187        3.42776080582115       -0.38270712828057
C           -2.14023056427885        2.64992279510498       -0.22049916787249
N           -3.38460114359871        3.27258920954554       -0.23788891584083
C           -3.54702912789481        4.52750704424188        0.36465734148427
C           -2.73161597855383        4.95982032626205        1.40589170276997
C           -2.89742568659646        6.21849907965651        1.95705594572086
C           -3.89423183740274        7.05813919259024        1.49369833799869
C           -4.75585721369897        6.61905304722077        0.50279842857614
C           -4.59389992409882        5.35941142869709       -0.05049988661198
O           -5.49374138887602        4.95907181090576       -0.99830621224658
C           -5.53921520207602        3.61134886355546       -1.26304456056128
C           -6.65778777023116        3.14555355566049       -1.93311909859466
C           -6.77030630366884        1.80237229194862       -2.24932428805954
C           -5.75986215147622        0.93131553315282       -1.88761999094559
C           -4.64000919390016        1.39013141133546       -1.21482500434695
C           -4.51002967267741        2.73500498402609       -0.89135803849687
N           -2.09761972802963        1.34511500611898       -0.08046427432645
C           -0.92184472099955        0.71224799744879       -0.07069053271611
C           -0.92002450506888       -0.71514060674659        0.06459375123789
N           -2.09393607250737       -1.35113140135276        0.06990198166205
C           -2.13509167675357       -2.65535082899595        0.21753060412905
N           -3.37753568201704       -3.27963928086560        0.23222295210394
C           -4.51498817379824       -2.72958817735695        0.85532915554230
C           -4.66366130305796       -1.37500854175420        1.12587471751579
C           -5.79528264749954       -0.90470967775423        1.77058076846025
C           -6.79897367828538       -1.77343305603143        2.15585821747259
C           -6.66826941938115       -3.12605774173152        1.89118888806644
C           -5.53806487114617       -3.60325407400360        1.24921614779171
O           -5.47528602513715       -4.95916890267099        1.03314609977057
C           -4.57110477806965       -5.37948975266582        0.09826727517540
C           -4.72267130496763       -6.65495588821688       -0.42083656532287
C           -3.85615099832144       -7.11391904955547       -1.39828083242508
C           -2.86541081493561       -6.27932008532282       -1.88343536904953
C           -2.71001119832401       -5.00497682458249       -1.36634788061055
C           -3.52981482709919       -4.55147819314191       -0.33770091343851
C           -0.95855678591997       -3.42849413709981        0.39291231112310
C            0.25160762230172       -2.79725733222483        0.35772408864521
C            0.31205113461543       -1.40122668944772        0.17261832823448
C            1.55071525414204       -0.70771599280894        0.09849599018811
N            2.70748032457121       -1.34782005649314        0.19097096229114
C            3.87580191961108       -0.71156669206594        0.09741591500080
C            5.09830695766663       -1.36727715538044        0.18674145462292
C            6.30729747975965       -0.68874534956336        0.09955594951391
C            7.55877074319432       -1.44527828343199        0.26354617939001
C            7.76720216590070       -2.62242135559373       -0.45064424594609
C            8.93779854853392       -3.34132879183032       -0.29480644102401
C            9.91268552488657       -2.90100386947986        0.58429364227035
C            9.70797954008661       -1.73926966056894        1.31038681314659
C            8.54146709006237       -1.01576641789913        1.15255965293382
C            7.76393539149905        2.63877852413207        0.44567750999200
C            8.93332968305746        3.35914577849773        0.28747732550567
H           10.82091795525152        3.48247209770896       -0.71610851007577
H           10.45487741699335        1.41525336132419       -2.01435200382556
H            8.37734601060563        0.13369508837539       -1.73533322255091
H            5.08339558035647        2.44534913517187       -0.35288881402408
H            1.17055744758127        3.34470579266539       -0.46766714409973
H           -1.03934922490503        4.49014156541224       -0.55531179320690
H           -1.96207417135664        4.30376265051201        1.78245222640173
H           -2.24333207718453        6.53781030143553        2.75353786139934
H           -4.01703164824923        8.04444894371025        1.91251666724200
H           -5.56123053222690        7.23791139672969        0.14102200082641
H           -7.42256421860255        3.85601441691537       -2.20401581553524
H           -7.64365055424129        1.44682840240563       -2.77349463666105
H           -5.83452269923335       -0.11873473428552       -2.12412523311409
H           -3.85057424079094        0.71027028145179       -0.94445913902334
H           -3.87872367153248       -0.69677569549778        0.83919122824943
H           -5.88431741060419        0.15264586266815        1.96617269316711
H           -7.68127199229789       -1.40881951218157        2.65840632617155
H           -7.42759599544505       -3.83479349849920        2.18128535783941
H           -5.52369586740390       -7.27008511689321       -0.04337648593363
H           -3.97048959929872       -8.11224933556402       -1.79018189428787
H           -2.20790341226785       -6.61513234972296       -2.67026527915269
H           -1.94493473315420       -4.35324003145561       -1.75925296610615
H           -1.02992891722245       -4.48936713929833        0.57542949357190
H            1.17649276536916       -3.33974981681474        0.48673531534469
H            5.08872207553736       -2.43379364692502        0.35347109478846
H            7.01304154804545       -2.96073948986970       -1.14706915258203
H            9.09083432198016       -4.24801539225889       -0.86235702910792
H           10.82735492696364       -3.46251102930909        0.70531662880573
H           10.46131582380506       -1.39578680024914        2.00432141591981
H            8.38166372054660       -0.11673760839589        1.72940701903420
H            7.01068760996034        2.97626943330368        1.14349030031318
H            9.08632672139283        4.26609901890489        0.85461293174296
