110
 energy: -152.576528355346 gnorm: 0.000069668280 xtb: 6.7.1 (edcfbbe)
C            6.70289618217770        4.95658707713511        1.22594562879102
C            6.99714739396201        4.09748284781004       -0.01207457964777
C            6.87706283430069        4.95395027532762       -1.28075706979911
C            8.44072194821145        3.59693827246853        0.08891258495244
C            5.98742889666269        2.96223712412005       -0.07919752309512
C            4.62465138124874        3.27360111042704       -0.17279342622700
C            3.63604917435447        2.31218535153810       -0.23009552190185
C            4.02215838436462        0.98084649460527       -0.18016494596422
C            5.38924693693225        0.63954942992902       -0.11292208903857
C            6.36218781957043        1.62622144571160       -0.05977249739471
C            5.45239097697695       -0.79863400272591       -0.12810209357233
C            6.50541606679563       -1.69831774225508       -0.06682004491151
C            6.24726470416788       -3.06185778396915       -0.07526293185484
C            7.35258978783030       -4.10520562522317       -0.01954378256506
C            8.74999555419157       -3.48076670634936        0.02238204475674
C            7.17474842116310       -4.96080382018993        1.24286917542370
C            7.26636168925684       -4.99493418084481       -1.26799415039764
C            4.91432524222058       -3.48956298921272       -0.12455934980804
C            3.84755911749749       -2.61550822746654       -0.18570765101082
C            4.11989828275985       -1.25589556434709       -0.21017558843064
N            3.26284619865019       -0.17317290799756       -0.24577367706265
C            1.87362332338856       -0.22597930692253       -0.33767028615386
C            1.25632723796918       -1.07818042964404       -1.26006020768840
C           -0.12022201213352       -1.09359228759798       -1.35759962087289
C           -0.91307391863812       -0.28390784688065       -0.55169886168186
N           -2.29528797135293       -0.27537080195620       -0.74573880157450
C           -3.12566390602543       -1.37591130481795       -0.65152913479626
C           -2.81612643282736       -2.71620151811619       -0.49313335138373
C           -3.85850643260796       -3.61634962756758       -0.35892979294898
C           -5.19745192025812       -3.22232233890141       -0.36807066012898
C           -6.34102805062208       -4.20806396014938       -0.18851887241878
C           -7.12342762091755       -3.82495204202809        1.07615336324419
C           -7.26328840709447       -4.14031318623477       -1.41434062730459
C           -5.86350897214010       -5.65429683347756       -0.03295933374006
C           -5.49360407306345       -1.86962806811540       -0.52149205987789
C           -4.47245460944468       -0.95078532494436       -0.66362968737205
C           -4.44500278324134        0.48561965036170       -0.77391600168887
C           -5.43568527135068        1.45387401149031       -0.77608935403890
C           -5.08321533307004        2.79493386657645       -0.85156347631583
C           -6.10865904851605        3.91405806135556       -0.77532092514453
C           -5.80044880375929        4.76444578419779        0.46586535356586
C           -7.54247659567780        3.39193871729517       -0.65049875972849
C           -6.02444330963703        4.77963018213520       -2.04041444539987
C           -3.72831278989132        3.12758519594194       -0.98053823109554
C           -2.72226259457890        2.18371292462623       -0.98546027031308
C           -3.08606314031997        0.85409995815631       -0.83385671557159
C           -0.29904334479187        0.53388855197557        0.42783667403503
C           -1.06577563929866        1.42612052627070        1.32815197286818
O           -0.61580702574754        2.57787094823154        1.54344514098483
C           -2.29296808918665        0.94340212568000        1.87783017563128
C           -2.65086776923559       -0.41894563842659        2.05649416441999
N           -3.81314154596247       -0.79397310770490        2.51895796548796
C           -4.69571930514169        0.14049699738921        2.85317388773256
N           -4.41620141038373        1.44215803197132        2.83468879230245
C           -3.26250008310880        1.84454129715723        2.39635111791079
C            1.09054347744574        0.56778283118617        0.48857108300530
H            7.42558309575513        5.76650271240530        1.29969347784582
H            6.76932139451956        4.35117377394221        2.12755450531769
H            5.70854605385909        5.39133801973972        1.18127588663591
H            7.60902841566415        5.75855279811823       -1.25927224535835
H            7.05888170697041        4.34502304341780       -2.16406811629418
H            5.88898240908390        5.39625408423580       -1.36973426217945
H            8.71310846775856        3.00703313992542       -0.78332138857664
H            9.11599239219146        4.44858183203631        0.14130512681851
H            8.58578546297143        2.99883781678981        0.98560350611267
H            4.31912671308173        4.30777257210689       -0.20445032400864
H            2.59965045134009        2.59851966289131       -0.31601426211887
H            7.39658212832511        1.33047912293343       -0.00755883747717
H            7.51012223232874       -1.31481178605749       -0.00820434859746
H            8.87777187831296       -2.86562374470381        0.91004850274880
H            9.49828665623976       -4.27021329382944        0.05179139555878
H            8.93530287691196       -2.87603542614241       -0.86238671019209
H            6.22467635953198       -5.48753925902147        1.23616173035637
H            7.20955911537016       -4.33241501698503        2.13041066181461
H            7.97182076423651       -5.69819248036184        1.31019983592818
H            8.06292527084228       -5.73581154795143       -1.25505458022835
H            6.31624667234630       -5.51923175507426       -1.31831133436767
H            7.37087890801081       -4.39135047246053       -2.16729251556918
H            4.69713526794674       -4.54652389218217       -0.10897547646527
H            2.83445872159402       -2.98757282226909       -0.19760045897380
H            1.85728994558752       -1.67198763289120       -1.93036493911385
H           -0.59883684026400       -1.69449632210554       -2.11689611591129
H           -1.79214144161867       -3.05647100100612       -0.45425537609982
H           -3.60428612954638       -4.65532150671976       -0.23191465502081
H           -7.92249078845606       -4.54160419687163        1.25420472643781
H           -6.46063759213754       -3.82054470642199        1.93864843945917
H           -7.56608415732198       -2.83728675694440        0.98447184524691
H           -7.68169463963961       -3.14618100507802       -1.54326026189583
H           -6.71021331473908       -4.39656641109360       -2.31573124885196
H           -8.08585980925629       -4.84351613788161       -1.30260838250515
H           -6.72529500033933       -6.30832354943084        0.08425066260055
H           -5.31153902311467       -5.98241627376904       -0.91087187188112
H           -5.23628295104481       -5.76636028145076        0.84811475164986
H           -6.51415976788584       -1.52047740296501       -0.51555066953133
H           -6.46428321186038        1.14355616306124       -0.70304125941238
H           -4.81765508510008        5.22217160948115        0.39782889987155
H           -6.53956314183601        5.55588793591267        0.57122888623395
H           -5.82544723513831        4.14320355511025        1.35878674466606
H           -7.81682922431941        2.78810646230778       -1.51276728746347
H           -8.23033800211811        4.23346607564772       -0.59811312824661
H           -7.66464819398919        2.80251818079625        0.25506514158308
H           -5.04579655685519        5.23874200033529       -2.14574641366006
H           -6.21413580279069        4.17365347437863       -2.92416838343432
H           -6.76812450706283        5.57263987729046       -1.99947832258902
H           -3.44317614301508        4.16397791637306       -1.06917419153480
H           -1.68966798769726        2.47926776194303       -1.08326844723256
H           -1.93957244784717       -1.20990302567971        1.84767467513380
H           -5.67022656184236       -0.17097438307805        3.19013438311733
H           -3.03888010962129        2.90293768833348        2.41463917856036
H            1.55248820983133        1.19247633650548        1.23746601384308
