  110
       -152.64412073
 C          6.7822019848        4.9699940775        1.2538758843
 C          7.0882843118        4.0821123307        0.0396223479
 C          7.0290297721        4.9192982981       -1.2458953085
 C          8.5144616994        3.5460000691        0.1926408316
 C          6.0519334731        2.9709769339       -0.0438849487
 C          4.6994191418        3.3160116800       -0.1677665493
 C          3.6900957445        2.3786440931       -0.2531137875
 C          4.0430041577        1.0395878550       -0.2076392598
 C          5.3974945203        0.6639299800       -0.1040702915
 C          6.3926233389        1.6287692176       -0.0182796248
 C          5.4274899660       -0.7731469170       -0.1310065699
 C          6.4568581234       -1.6996054396       -0.0307913509
 C          6.1682019323       -3.0542513500       -0.0555768069
 C          7.2435173563       -4.1251724027        0.0573573165
 C          8.6527625799       -3.5350294454        0.1580779721
 C          6.9864728650       -4.9620377176        1.3186517055
 C          7.1940100414       -5.0264002308       -1.1843923720
 C          4.8293685291       -3.4506294047       -0.1708040004
 C          3.7870127497       -2.5517013191       -0.2733943703
 C          4.0907689324       -1.1997194804       -0.2681190223
 N          3.2579269777       -0.0957654587       -0.3130568535
 C          1.8701870693       -0.1224096943       -0.4402694621
 C          1.2660383362       -0.9057484119       -1.4249850962
 C         -0.1066100210       -0.9156704593       -1.5637945815
 C         -0.9122800266       -0.1693026229       -0.7090718898
 N         -2.2983828343       -0.1574773471       -0.8813962456
 C         -3.1230197154       -1.2667153982       -0.7897215995
 C         -2.8028881576       -2.6088285665       -0.6957239857
 C         -3.8343634412       -3.5162117514       -0.5399109043
 C         -5.1742258495       -3.1276443780       -0.4700876753
 C         -6.3029772976       -4.1262201081       -0.2600761981
 C         -6.9898679025       -3.8087756299        1.0760372313
 C         -7.3124857018       -4.0036549763       -1.4100626505
 C         -5.8149211501       -5.5764650006       -0.2121372934
 C         -5.4804411244       -1.7764212420       -0.5642595538
 C         -4.4675608213       -0.8456326843       -0.7234168023
 C         -4.4517383623        0.5910694594       -0.7801680340
 C         -5.4514796985        1.5524558893       -0.7241856463
 C         -5.1140694136        2.8952384635       -0.7605098373
 C         -6.1501090492        4.0025328576       -0.6394846370
 C         -5.8533243762        4.8110790004        0.6317305430
 C         -7.5783912656        3.4612613349       -0.5347181992
 C         -6.0761413150        4.9155685301       -1.8710756009
 C         -3.7631603915        3.2448511368       -0.8927664788
 C         -2.7492905334        2.3106598621       -0.9557184903
 C         -3.0987044423        0.9726802600       -0.8676765215
 C         -0.3144897248        0.5867586344        0.3109982655
 C         -1.1089695234        1.3147899385        1.3370732611
 O         -0.7687783097        2.3862173507        1.7887888144
 C         -2.3178573451        0.6085044633        1.8360466901
 C         -2.3724775514       -0.7701121457        2.0440766075
 N         -3.4635192860       -1.3708543200        2.4840251213
 C         -4.5081487709       -0.6049205215        2.7353098877
 N         -4.5595373439        0.7115964519        2.6255708962
 C         -3.4750042935        1.3135247607        2.1786565882
 C          1.0699603316        0.6278175665        0.4150117003
 H          7.5268637052        5.7588001228        1.3384390008
 H          6.8013097228        4.3774996298        2.1662950766
 H          5.8039574856        5.4348402870        1.1710547679
 H          7.7785662552        5.7073412121       -1.2152693912
 H          7.2237971780        4.2907166284       -2.1124493971
 H          6.0543396288        5.3816937332       -1.3735311256
 H          8.7990551890        2.9390966474       -0.6638214812
 H          9.2102833380        4.3803074498        0.2578760446
 H          8.6140535439        2.9540523298        1.0995629426
 H          4.4201899799        4.3578138468       -0.2028581793
 H          2.6618631854        2.6886592939       -0.3622833864
 H          7.4173973163        1.3063742347        0.0598887866
 H          7.4662551392       -1.3385005393        0.0731836591
 H          8.7557371595       -2.9166483664        1.0467087823
 H          9.3795631312       -4.3421735168        0.2258062832
 H          8.8916246063       -2.9408337524       -0.7209796844
 H          6.0221302105       -5.4605084226        1.2749167200
 H          7.0003601486       -4.3251609900        2.2007914808
 H          7.7576754553       -5.7216518373        1.4287377470
 H          7.9719769081       -5.7849283195       -1.1282097106
 H          6.2356111218       -5.5300922269       -1.2728117735
 H          7.3525591411       -4.4351531934       -2.0838480425
 H          4.5871732379       -4.5024434551       -0.1744268605
 H          2.7671965029       -2.9009580551       -0.3392534170
 H          1.8833423420       -1.4761228260       -2.1021041594
 H         -0.5693031702       -1.4862056570       -2.3547979318
 H         -1.7772488508       -2.9457969434       -0.7222828901
 H         -3.5713175092       -4.5575585345       -0.4606621344
 H         -7.7842087060       -4.5263803813        1.2707894528
 H         -6.2669988398       -3.8604571600        1.8875963743
 H         -7.4238571374       -2.8127328316        1.0695744959
 H         -7.7485172258       -3.0097859183       -1.4535626578
 H         -6.8238815260       -4.2029712160       -2.3616410546
 H         -8.1187461059       -4.7224078614       -1.2790708123
 H         -6.6668534744       -6.2399704620       -0.0769660703
 H         -5.3180868687       -5.8534460346       -1.1392266647
 H         -5.1337343779       -5.7329167771        0.6207355741
 H         -6.4998801231       -1.4293406836       -0.4994494273
 H         -6.4746971996        1.2275537087       -0.6425806360
 H         -4.8661213529        5.2633992049        0.5925212440
 H         -6.5874708837        5.6051152783        0.7516537173
 H         -5.8990050976        4.1632771065        1.5049335477
 H         -7.8448428498        2.8865673837       -1.4189529035
 H         -8.2754107319        4.2928416733       -0.4519564792
 H         -7.6950564932        2.8369280480        0.3478784707
 H         -5.1055667494        5.3960373355       -1.9547208581
 H         -6.2505940262        4.3389034051       -2.7771683652
 H         -6.8341820365        5.6932814799       -1.8055386900
 H         -3.4876463609        4.2868587270       -0.9423391502
 H         -1.7201269540        2.6202242549       -1.0605568145
 H         -1.5118845766       -1.4056875477        1.8736176415
 H         -5.4059914620       -1.1025386726        3.0770201852
 H         -3.5180935742        2.3889540506        2.0677595762
 H          1.5155158651        1.2182579210        1.2015111267
