  52
  -81.4528746522000       0.281832468135536      !
 C         -5.1254408529        0.5611485677       -1.6512242705
 C         -4.4710839970        0.2654323477       -0.2894940500
 C         -5.5448894116        0.1781723113        0.8104099906
 C         -3.5217138871        1.3966645362        0.0535293547
 C         -4.0200316756        2.6869199992        0.1758324294
 C         -3.2162981695        3.7553409565        0.5256786491
 C         -1.8756933526        3.5338655457        0.7831098562
 C         -1.3543068437        2.2627429448        0.6654745507
 C         -2.1576795100        1.1859591868        0.2788846182
 N         -1.6042594237       -0.0826492310        0.1586038230
 C         -0.2241212014       -0.2615565620        0.4079206318
 C          0.1954534973       -0.9333606621        1.5616637286
 C          1.5366034699       -1.0951914980        1.8077468097
 C          2.4980509446       -0.5964288494        0.9229946659
 C          3.9309386086       -0.7689255703        1.2041894956
 O          4.3514704858       -1.3471944213        2.1932549564
 C          4.8062138793       -0.1780242779        0.1804586990
 C          6.1965301588       -0.2501695563        0.3094855155
 C          7.0218609555        0.2981023953       -0.6448740561
 C          6.4701876061        0.9316685573       -1.7550467929
 C          5.1031215254        1.0159194045       -1.9055210655
 C          4.2630970764        0.4633706840       -0.9384289656
 O          2.9273559107        0.5851094120       -1.1439204317
 C          2.0720290127        0.0723007700       -0.2311267578
 C          0.7108737459        0.2327749563       -0.4851963316
 C         -2.3770393019       -1.1890664832       -0.1693277029
 C         -1.7672898269       -2.4366922812       -0.3313746304
 C         -2.5097937382       -3.5556959007       -0.6444805418
 C         -3.8781346488       -3.4488739530       -0.8152784908
 C         -4.4782965344       -2.2101139242       -0.6903258059
 C         -3.7544199877       -1.0675150583       -0.3767920722
 H         -5.8173925560       -0.2283896821       -1.9293641562
 H         -4.3596683016        0.6336598855       -2.4210620691
 H         -5.6731192488        1.4987368082       -1.6226471596
 H         -6.2587387417       -0.6112485281        0.5932760803
 H         -5.0756457408       -0.0366913459        1.7686718950
 H         -6.0885381296        1.1145158920        0.8977870334
 H         -5.0688088419        2.8684685852       -0.0025904839
 H         -3.6359219221        4.7460169848        0.6082161927
 H         -1.2323152811        4.3482576565        1.0801098760
 H         -0.3110503591        2.1000583850        0.8853051224
 H         -0.5449779706       -1.3145795766        2.2479541285
 H          1.8891263806       -1.6028523641        2.6925728178
 H          6.5905502757       -0.7490214277        1.1820211858
 H          8.0935517358        0.2385099096       -0.5349004141
 H          7.1161134666        1.3617327449       -2.5054335894
 H          4.6571608942        1.5026939707       -2.7586843043
 H          0.3998646940        0.7525034357       -1.3778223505
 H         -0.6986821450       -2.5284610739       -0.2164492293
 H         -2.0155291216       -4.5085923985       -0.7587950157
 H         -4.4717244470       -4.3175753880       -1.0552157663
 H         -5.5440152041       -2.1363931764       -0.8441907942
  52
  -81.4526831263000       0.230129246038224      !
 C         -5.6181492334        0.2751241690       -0.5665451000
 C         -4.4326841466        0.2683971904        0.4153716462
 C         -4.9315998108        0.4857973887        1.8556175241
 C         -3.4954156321        1.4016795392        0.0483666782
 C         -3.9778618973        2.7035823808        0.0251298861
 C         -3.1837278555        3.7750057739       -0.3372532320
 C         -1.8719221138        3.5459805719       -0.7110854721
 C         -1.3660333147        2.2634506271       -0.6903779174
 C         -2.1557851760        1.1828249921       -0.2862112641
 N         -1.6129011711       -0.0958481647       -0.2616979486
 C         -0.2296695564       -0.2568522502       -0.5021686764
 C          0.2173820123       -0.8898806426       -1.6674662643
 C          1.5646126172       -1.0385410775       -1.8891706779
 C          2.5052854684       -0.5632205305       -0.9697697456
 C          3.9446516156       -0.7286679444       -1.2202996679
 O          4.3896380360       -1.2786896834       -2.2147843545
 C          4.7945154234       -0.1694311791       -0.1577392099
 C          6.1875265308       -0.2466506375       -0.2497744396
 C          6.9888218785        0.2742952473        0.7396883675
 C          6.4101131404        0.8866494296        1.8481770831
 C          5.0398880312        0.9745282889        1.9631677311
 C          4.2242416365        0.4473107771        0.9615228615
 O          2.8840930983        0.5676349767        1.1356033156
 C          2.0515243559        0.0742710973        0.1915422909
 C          0.6850668326        0.2196686370        0.4214264032
 C         -2.3848630870       -1.2111503352        0.0398998102
 C         -1.7951901470       -2.4782657031        0.0742084253
 C         -2.5409140029       -3.6029939694        0.3583051600
 C         -3.8917225073       -3.4838980568        0.6295881511
 C         -4.4696870065       -2.2285233443        0.6318470627
 C         -3.7431120797       -1.0801784566        0.3465806946
 H         -6.3194723763       -0.5210121131       -0.3348517069
 H         -5.2569139708        0.1299396651       -1.5828034649
 H         -6.1527388675        1.2195361786       -0.5242466244
 H         -4.0892213122        0.4742215408        2.5446840661
 H         -5.4383211471        1.4422722928        1.9490407317
 H         -5.6241023860       -0.2984224720        2.1481619449
 H         -5.0052412941        2.8925357371        0.2965532866
 H         -3.5894032952        4.7749545765       -0.3397237568
 H         -1.2396569415        4.3636171398       -1.0229699380
 H         -0.3465576855        2.0938885127       -0.9996598593
 H         -0.5056389375       -1.2520279197       -2.3820341752
 H          1.9379176480       -1.5198468290       -2.7801527345
 H          6.6032416728       -0.7271361498       -1.1225651887
 H          8.0627756031        0.2101035798        0.6585837190
 H          7.0372171447        1.2967095262        2.6250767320
 H          4.5725450706        1.4447764265        2.8140697805
 H          0.3526077219        0.7132341090        1.3212924698
 H         -0.7386862072       -2.5830454078       -0.1160917209
 H         -2.0616812328       -4.5703029428        0.3722662573
 H         -4.4872244235       -4.3561381291        0.8513997261
 H         -5.5192990445       -2.1456988679        0.8691778409
  52
  -81.4523374993000       0.159636663835251      !
 C         -5.6099822527        0.1387706917       -0.5858130344
 C         -4.4567312820        0.0611166194        0.4309358136
 C         -5.0148058797       -0.0290448261        1.8629462584
 C         -3.6210072902        1.3216023268        0.3163645520
 C         -4.2146166103        2.5573748778        0.5340821869
 C         -3.5003478109        3.7387589264        0.4585867523
 C         -2.1491735193        3.6945645018        0.1667546610
 C         -1.5333758335        2.4801360694       -0.0517769082
 C         -2.2572236859        1.2859997154        0.0097254503
 N         -1.6108156218        0.0799237299       -0.2141406083
 C         -0.2238996673        0.0932373253       -0.5088054997
 C          0.2118518079        0.3871567658       -1.8044753448
 C          1.5573849434        0.4096403303       -2.0811346875
 C          2.5022453909        0.1472092917       -1.0845025728
 C          3.9406829220        0.1844528455       -1.3933091299
 O          4.3764696339        0.4234708273       -2.5073879422
 C          4.7986557971       -0.0895665565       -0.2309510481
 C          6.1910468251       -0.0735418425       -0.3585242283
 C          7.0003635083       -0.3223879421        0.7255507619
 C          6.4304609613       -0.5943028137        1.9666129329
 C          5.0612173229       -0.6177901737        2.1180475008
 C          4.2372856374       -0.3659405498        1.0207777345
 O          2.8982679572       -0.4039838383        1.2372579285
 C          2.0582657489       -0.1466003789        0.2104135126
 C          0.6925658062       -0.1748886778        0.4915199608
 C         -2.2796829420       -1.1330057289       -0.1610654112
 C         -1.5890579144       -2.3154950915       -0.4405930944
 C         -2.2276972340       -3.5369506022       -0.3949135756
 C         -3.5712450063       -3.5998573585       -0.0728191197
 C         -4.2592275705       -2.4295744013        0.1894598493
 C         -3.6423090451       -1.1867631488        0.1482438352
 H         -6.2423955708       -0.7420813400       -0.5242474497
 H         -5.2086565750        0.2035988258       -1.5953149143
 H         -6.2276689353        1.0137228856       -0.4053495653
 H         -4.1946870763       -0.0824384341        2.5763315692
 H         -5.6185511070        0.8424573977        2.0993742994
 H         -5.6318527338       -0.9150013443        1.9828240113
 H         -5.2661805704        2.6058635379        0.7723217711
 H         -3.9938701541        4.6827253860        0.6313477512
 H         -1.5702073234        4.6040954896        0.1104594449
 H         -0.4772535684        2.4535025058       -0.2709821036
 H         -0.5178097402        0.5951206511       -2.5717653294
 H          1.9254784001        0.6310399369       -3.0712398675
 H          6.5995218347        0.1421237221       -1.3342731355
 H          8.0736704010       -0.3060915940        0.6169758055
 H          7.0641385140       -0.7879941415        2.8187032716
 H          4.6015252700       -0.8265047339        3.0712934180
 H          0.3643408796       -0.4040769270        1.4932694713
 H         -0.5428096851       -2.2721453226       -0.7015507180
 H         -1.6740353938       -4.4375062604       -0.6141693758
 H         -4.0823020789       -4.5494105738       -0.0314616001
 H         -5.3088874704       -2.4923994165        0.4326641031
  52
  -81.4523162441000       0.156086171931969      !
 C         -5.0427812123        0.8432776580        1.6620370253
 C         -3.6831745088        0.4394130499        1.0933238407
 C         -2.6639289955        0.4267629343        2.2504885015
 C         -3.1962286104        1.3936379196        0.0169122218
 C         -3.7502945622        2.6382121083       -0.2384300126
 C         -3.2530876772        3.4435390715       -1.2494978272
 C         -2.2118817171        2.9999192138       -2.0449872067
 C         -1.6529107578        1.7567593272       -1.8147397455
 C         -2.1197826260        0.9706836273       -0.7689365256
 N         -1.5971819393       -0.3187887465       -0.5357719338
 C         -0.2671555013       -0.5643861185       -0.2931234559
 C          0.1723061850       -1.8425951499        0.1096879329
 C          1.4970164547       -2.0807336281        0.3554470582
 C          2.4628781921       -1.0741900118        0.2329713159
 C          3.8752504257       -1.3435385188        0.4868650063
 O          4.3107194532       -2.4465138921        0.7901664837
 C          4.7341682148       -0.1540419629        0.3447938812
 C          6.1126328466       -0.2458932334        0.5524329579
 C          6.9215711547        0.8597200329        0.4234980196
 C          6.3629904091        2.0879491808        0.0824923592
 C          5.0061686351        2.2048163418       -0.1268783153
 C          4.1830273084        1.0856510909        0.0027906546
 O          2.8583823851        1.2710765593       -0.2188302264
 C          2.0203674342        0.2092602017       -0.1118339454
 C          0.6784142607        0.4595819292       -0.3594555646
 C         -2.6121309695       -1.2804103434       -0.3511337699
 C         -2.5792785483       -2.4954448705       -1.0237758518
 C         -3.6117941852       -3.4002420940       -0.8622125269
 C         -4.6865367659       -3.0793582242       -0.0522839873
 C         -4.7392887804       -1.8494255175        0.5822289033
 C         -3.7085834873       -0.9331540347        0.4439957736
 H         -5.3497453500        0.1408848584        2.4327866782
 H         -5.8005254721        0.8687079627        0.8822384791
 H         -4.9780851237        1.8238909612        2.1266632324
 H         -1.6721083519        0.1438420560        1.9112189065
 H         -2.6032685494        1.4161956690        2.6988213611
 H         -2.9802855182       -0.2827485592        3.0122530898
 H         -4.5779203306        2.9972612535        0.3512013636
 H         -3.6927030066        4.4136517999       -1.4245852522
 H         -1.8427775104        3.6129466801       -2.8529974151
 H         -0.8681429612        1.3830505909       -2.4547192527
 H         -0.5427121436       -2.6348822735        0.2533898397
 H          1.8352189025       -3.0593224115        0.6596354373
 H          6.5122584589       -1.2135675701        0.8157877581
 H          7.9851154673        0.7767897568        0.5858787100
 H          6.9947061119        2.9573812565       -0.0195370486
 H          4.5550530963        3.1485293377       -0.3914961914
 H          0.3940356967        1.4734725486       -0.5824916203
 H         -1.7539040654       -2.7183458901       -1.6829517665
 H         -3.5814064459       -4.3471280222       -1.3792836016
 H         -5.4956879827       -3.7819789207        0.0766608054
 H         -5.5977837286       -1.6159329021        1.1905171337
  52
  -81.4518262194000       9.293186861920827E-002 !
 C         -2.8083807844        1.3899964852       -1.8729815781
 C         -3.7818784976        0.6082467910       -0.9682464582
 C         -5.1910111983        0.7670480326       -1.5372888558
 C         -3.6678253057        1.1349701266        0.4510645312
 C         -4.6228371276        1.9144418489        1.0851108066
 C         -4.4359135497        2.3458430594        2.3878356810
 C         -3.2986351643        1.9818564614        3.0873843640
 C         -2.3404838195        1.1948752599        2.4775240341
 C         -2.5121234402        0.7939573691        1.1582947723
 N         -1.5766685591       -0.0575505165        0.5350639802
 C         -0.2369304336        0.2393616324        0.4637838611
 C          0.2396259896        1.4781719692        0.9436662771
 C          1.5711957605        1.7840336635        0.8920816361
 C          2.5106155895        0.8909223193        0.3621868847
 C          3.9343252132        1.2133555762        0.3476439252
 O          4.3952080921        2.2640029866        0.7737654981
 C          4.7712973337        0.1436885984       -0.2237637917
 C          6.1618179840        0.2735657223       -0.2565717022
 C          6.9517641843       -0.7234691778       -0.7811369260
 C          6.3605664575       -1.8752947725       -1.2916117561
 C          4.9908848508       -2.0254869532       -1.2743522144
 C          4.1868662544       -1.0191616745       -0.7375601572
 O          2.8479918062       -1.2361955532       -0.7405469094
 C          2.0324389928       -0.3120963127       -0.1722603997
 C          0.6791192408       -0.6218213520       -0.1400500583
 C         -2.1997116747       -1.1293075864       -0.1378175241
 C         -1.7805118628       -2.4418612401        0.0379227324
 C         -2.4464412204       -3.4711745991       -0.6020196785
 C         -3.5478556174       -3.1934669375       -1.3907988229
 C         -3.9991469187       -1.8905514491       -1.5213127786
 C         -3.3388233865       -0.8429447115       -0.8995039466
 H         -2.8558909627        1.0003234767       -2.8876914514
 H         -1.7831891716        1.3118758785       -1.5243219808
 H         -3.0852424110        2.4420356204       -1.8898015793
 H         -5.2291665552        0.3903938220       -2.5562659599
 H         -5.9196285736        0.2318185157       -0.9327357992
 H         -5.4625860796        1.8191298420       -1.5713637530
 H         -5.5250693303        2.1986271366        0.5685843702
 H         -5.1876355237        2.9595551231        2.8603259745
 H         -3.1615264477        2.2985836431        4.1099995678
 H         -1.4619105975        0.8786277694        3.0196185155
 H         -0.4557044970        2.2029638294        1.3330225394
 H          1.9367445452        2.7304993825        1.2592946638
 H          6.5857473802        1.1802275597        0.1478747399
 H          8.0252051017       -0.6144052583       -0.7975765370
 H          6.9773795872       -2.6589067631       -1.7051462594
 H          4.5159049251       -2.9115749621       -1.6656893476
 H          0.3675800161       -1.5404007367       -0.6066485936
 H         -0.9549364148       -2.6581208964        0.6982222500
 H         -2.1137800276       -4.4893524557       -0.4686407053
 H         -4.0716796624       -3.9932983565       -1.8918119290
 H         -4.8767251209       -1.7027894097       -2.1181135201
  52
  -81.4509268375000       3.587875516100628E-002 !
 C         -5.6277007233        0.1455673790       -0.5284475002
 C         -4.4458857280        0.1071917512        0.4570077139
 C         -4.9628228594        0.1029716056        1.9072620788
 C         -3.5976302167        1.3479087979        0.2509640370
 C         -4.1701715307        2.6027187370        0.4064079088
 C         -3.4437059574        3.7672311768        0.2387001735
 C         -2.1032396169        3.6872627053       -0.0922065218
 C         -1.5078084877        2.4533681686       -0.2500298588
 C         -2.2415792223        1.2757644446       -0.0827130856
 N         -1.6155149749        0.0506320131       -0.2466265749
 C         -0.2269147380        0.0227505293       -0.5391900160
 C          0.2109825527        0.0711561955       -1.8657628864
 C          1.5577520602        0.0473510919       -2.1380257317
 C          2.4999703434       -0.0247911538       -1.1076592368
 C          3.9396149032       -0.0448634761       -1.4141668410
 O          4.3784650750       -0.0033774260       -2.5515612069
 C          4.7940946561       -0.1179108421       -0.2196992135
 C          6.1866076442       -0.1407502979       -0.3446259210
 C          6.9922208136       -0.2100122129        0.7681830900
 C          6.4186489300       -0.2588435480        2.0360824098
 C          5.0493806786       -0.2372468127        2.1860317154
 C          4.2291279747       -0.1661667990        1.0597540799
 O          2.8898735306       -0.1468554102        1.2764672113
 C          2.0529789565       -0.0752324853        0.2181871399
 C          0.6863815128       -0.0508070602        0.4961009574
 C         -2.2981151848       -1.1478388812       -0.1147996458
 C         -1.6225625901       -2.3529286007       -0.3255844416
 C         -2.2748086048       -3.5616156120       -0.2007037440
 C         -3.6155238345       -3.5883428687        0.1379193676
 C         -4.2858784438       -2.3964043555        0.3427940349
 C         -3.6554571969       -1.1658854910        0.2209037398
 H         -6.2252354481        1.0415650763       -0.3839468891
 H         -6.2729726023       -0.7181673147       -0.3948247302
 H         -5.2553048527        0.1420069701       -1.5514530910
 H         -5.5787921694       -0.7716274274        2.0960602502
 H         -4.1225923087        0.0871232671        2.5988733749
 H         -5.5564329132        0.9900732615        2.1095788566
 H         -5.2143347888        2.6805317020        0.6685384894
 H         -3.9209752777        4.7265769689        0.3668698790
 H         -1.5174086926        4.5840335372       -0.2272614456
 H         -0.4611259689        2.3966365078       -0.5069071990
 H         -0.5170187446        0.1272533673       -2.6601974820
 H          1.9285124451        0.0828034696       -3.1510326317
 H          6.5982974676       -0.1012117079       -1.3420172102
 H          8.0661226433       -0.2252342267        0.6609324921
 H          7.0496704994       -0.3128008167        2.9101941534
 H          4.5865036767       -0.2724424537        3.1592136152
 H          0.3552948910       -0.0894753346        1.5221132169
 H         -0.5767785417       -2.3373519986       -0.5920606589
 H         -1.7334058708       -4.4804376746       -0.3689116952
 H         -4.1369349663       -4.5275684083        0.2408115453
 H         -5.3319298719       -2.4327283616        0.6065119208
  52
  -81.4501248355000       1.535545772288738E-002 !
 C         -4.4769028564        0.3892139075       -1.7143652983
 C         -4.4438833131        0.0915151994       -0.1988606894
 C         -5.8849123511       -0.0199182561        0.2994565141
 C         -3.6849671917        1.2222798201        0.4636311819
 C         -4.3042350435        2.3051236892        1.0672578298
 C         -3.5752008093        3.3761050373        1.5555657194
 C         -2.1970479826        3.3727942148        1.4463731499
 C         -1.5549721105        2.2916500778        0.8769596367
 C         -2.2870621806        1.2122073451        0.3830293017
 N         -1.6273634717        0.1003772379       -0.1370736900
 C         -0.2468716616        0.2211930625       -0.4031567903
 C          0.1557792940        0.9754548473       -1.5115655970
 C          1.4912787311        1.1215880444       -1.7936865470
 C          2.4675907453        0.5273594755       -0.9875725264
 C          3.8947959190        0.6908652531       -1.2993402163
 O          4.2993194300        1.3259038614       -2.2599195930
 C          4.7866732657        0.0198495492       -0.3411782378
 C          6.1743641649        0.0871254517       -0.4976929827
 C          7.0149707308       -0.5360296796        0.3951985506
 C          6.4817568879       -1.2431326287        1.4694429234
 C          5.1177662115       -1.3238717239        1.6463230675
 C          4.2623485396       -0.6932452571        0.7426089478
 O          2.9306019757       -0.8123639578        0.9732849689
 C          2.0604681012       -0.2153943010        0.1271354347
 C          0.7052046068       -0.3590720453        0.4188728630
 C         -2.2589266635       -1.1408889772       -0.1198960390
 C         -1.5339899119       -2.3269950537       -0.2249863664
 C         -2.1678496284       -3.5504407305       -0.1344334063
 C         -3.5333535312       -3.6070904519        0.0694483157
 C         -4.2658537121       -2.4326548512        0.1042797099
 C         -3.6582336495       -1.1937798171       -0.0200488619
 H         -4.9901143564       -0.4121379250       -2.2417197129
 H         -3.4680766650        0.4707261649       -2.1111871604
 H         -4.9986400860        1.3258586680       -1.8997441826
 H         -5.9117678863       -0.2319652429        1.3658015936
 H         -6.4232029083        0.9038893260        0.1069483157
 H         -6.4100118573       -0.8071876655       -0.2339538751
 H         -5.3775770865        2.3336095122        1.1564415510
 H         -4.0851104357        4.2103033817        2.0122503729
 H         -1.6160721327        4.2038683348        1.8168455756
 H         -0.4773180228        2.2799360211        0.8201664219
 H         -0.5952913383        1.4387140917       -2.1328088373
 H          1.8278335654        1.6934717228       -2.6447333511
 H          6.5539781419        0.6441007485       -1.3409209744
 H          8.0845506599       -0.4781150951        0.2652638249
 H          7.1397343762       -1.7333848099        2.1708014012
 H          4.6858086511       -1.8669134426        2.4723125774
 H          0.4165242447       -0.9109501580        1.2996624945
 H         -0.4690429479       -2.2976037605       -0.3907056213
 H         -1.5880775067       -4.4574533306       -0.2170422893
 H         -4.0342759018       -4.5578836431        0.1672249317
 H         -5.3355078018       -2.5010225644        0.2141129599
  52
  -81.4498765001000       1.180689548081626E-002 !
 C         -4.4176901990       -0.0071626597       -1.7997836392
 C         -4.4312666392        0.1552461056       -0.2635305849
 C         -5.8834553130        0.3074181244        0.1887456077
 C         -3.5825618796        1.3709301763        0.0562976063
 C         -4.1239546213        2.6248749802        0.2879694002
 C         -3.3269505492        3.7535154041        0.3772964490
 C         -1.9633047413        3.6381579099        0.1870404075
 C         -1.3958329783        2.3941676382       -0.0068511808
 C         -2.1861509725        1.2459912378       -0.0198215287
 N         -1.6267098491       -0.0253899756       -0.1323561413
 C         -0.2532261467       -0.2084052040       -0.3926773678
 C          0.1197322291       -0.9207993209       -1.5392103578
 C          1.4479127051       -1.1155197403       -1.8251322807
 C          2.4477544779       -0.6096056052       -0.9878241333
 C          3.8670945265       -0.8149499434       -1.3089823138
 O          4.2466819732       -1.4215380379       -2.2977815340
 C          4.7847787949       -0.2203123883       -0.3248201536
 C          6.1688415269       -0.3206866722       -0.4949041135
 C          7.0331512621        0.2341687140        0.4203118351
 C          6.5279785689        0.9035377261        1.5316711649
 C          5.1680841851        1.0145438056        1.7232535651
 C          4.2887674372        0.4540583437        0.7964972450
 O          2.9627406485        0.6019259800        1.0423745857
 C          2.0700839765        0.0878110098        0.1657445712
 C          0.7218557926        0.2747065617        0.4648335280
 C         -2.3637422425       -1.1343785838        0.2801921485
 C         -1.7091304924       -2.2891295259        0.7076299635
 C         -2.4284110450       -3.3699259577        1.1764364350
 C         -3.8070566297       -3.2997631296        1.2514140304
 C         -4.4594880708       -2.1540083736        0.8289312388
 C         -3.7615342156       -1.0682678329        0.3250883372
 H         -4.9880693111       -0.8879025559       -2.0868966375
 H         -3.4001905422       -0.1194502417       -2.1652985122
 H         -4.8574410628        0.8686909573       -2.2723530537
 H         -6.4623367718       -0.5637964861       -0.1052827131
 H         -5.9444098183        0.4276089510        1.2680064512
 H         -6.3406937185        1.1674940293       -0.2924538135
 H         -5.1902660462        2.7427314784        0.3864629133
 H         -3.7757586018        4.7179799928        0.5586862088
 H         -1.3327068427        4.5144325534        0.1966355812
 H         -0.3317509937        2.3216686982       -0.1618254666
 H         -0.6489690298       -1.3125594150       -2.1874350901
 H          1.7609877301       -1.6566805132       -2.7047041438
 H          6.5265323045       -0.8462984876       -1.3673735690
 H          8.0997046759        0.1518909307        0.2791703627
 H          7.2045103599        1.3402122292        2.2505808283
 H          4.7575064501        1.5288153989        2.5780041023
 H          0.4567697614        0.7850594083        1.3774311062
 H         -0.6313433020       -2.3361328771        0.6795231689
 H         -1.9072432497       -4.2590945772        1.4973406244
 H         -4.3766777471       -4.1342781286        1.6303969765
 H         -5.5349035341       -2.1244235578        0.8898711920
  52
  -81.4496578314000       9.367906385568090E-003 !
 C         -5.7688582704       -0.0924188109        0.8517831429
 C         -4.2406160068       -0.0384892029        0.8746913083
 C         -3.7715638750       -0.1598016628        2.3413116623
 C         -3.6947017159        1.2736364130        0.3436475960
 C         -4.4321704445        2.4464734661        0.3327678419
 C         -3.8563511451        3.6633675063        0.0080526910
 C         -2.5072415960        3.7230397508       -0.2852619284
 C         -1.7565471503        2.5645340083       -0.3117885446
 C         -2.3457225385        1.3313116352       -0.0365702024
 N         -1.6078483502        0.1541711581       -0.1159393837
 C         -0.2255834102        0.2075494758       -0.4213043584
 C          0.2199227381        0.6052010467       -1.6874631889
 C          1.5655951034        0.6287190465       -1.9596904074
 C          2.5041978591        0.2611169855       -0.9902142905
 C          3.9423066921        0.2861139547       -1.2987788736
 O          4.3846337807        0.6180406888       -2.3863873703
 C          4.7922475272       -0.1265807113       -0.1719571129
 C          6.1838441703       -0.1510714239       -0.3058174124
 C          6.9856066122       -0.5329535781        0.7446557161
 C          6.4087019752       -0.8997535150        1.9576383698
 C          5.0400379095       -0.8847508735        2.1147657090
 C          4.2235877299       -0.4990590736        1.0512374106
 O          2.8845589611       -0.5084149669        1.2706726458
 C          2.0518893844       -0.1376174433        0.2728402844
 C          0.6850088360       -0.1633751822        0.5502275676
 C         -2.2689609161       -1.0592016444       -0.2847636448
 C         -1.6146341176       -2.1397305968       -0.8752642550
 C         -2.2800551534       -3.3297489114       -1.0914322471
 C         -3.6118556989       -3.4471569003       -0.7406195622
 C         -4.2609914900       -2.3781320243       -0.1462575395
 C         -3.6084473308       -1.1821074848        0.1065768334
 H         -6.1213464997       -1.0229369671        1.2875560507
 H         -6.1442712264       -0.0113302340       -0.1657780965
 H         -6.1857852275        0.7124811370        1.4501755020
 H         -2.6869699989       -0.1152859430        2.4003058282
 H         -4.1827358381        0.6544858439        2.9341072268
 H         -4.1026954951       -1.1067011143        2.7623397886
 H         -5.4771383845        2.4306644802        0.5948966580
 H         -4.4559916788        4.5606208638        0.0117463161
 H         -2.0344630712        4.6693843079       -0.5010257860
 H         -0.7042972398        2.6196842418       -0.5433251208
 H         -0.5037376110        0.8785564322       -2.4400645175
 H          1.9388879604        0.9235401891       -2.9285579352
 H          6.5977732471        0.1397628803       -1.2595460153
 H          8.0584588028       -0.5488213822        0.6310219167
 H          7.0363798424       -1.1990039878        2.7832595676
 H          4.5746482695       -1.1656055019        3.0465350454
 H          0.3523189322       -0.4804383941        1.5260229977
 H         -0.5815437612       -2.0440700179       -1.1727703338
 H         -1.7576547073       -4.1584023533       -1.5452763948
 H         -4.1446938949       -4.3688733496       -0.9175185939
 H         -5.2953968264       -2.4989960772        0.1301263627
  52
  -81.4493790364000       6.974566689533310E-003 !
 C         -5.7250121410        0.0534025565        1.0124084787
 C         -4.1982394081        0.0569143979        0.9366358721
 C         -3.6418145644        0.0185580591        2.3769352721
 C         -3.6464185140        1.3078392136        0.2803664455
 C         -4.3561455470        2.4937123151        0.1886930286
 C         -3.7632081472        3.6581994641       -0.2705483572
 C         -2.4277972876        3.6512133199       -0.6267248068
 C         -1.7064033718        2.4747962512       -0.5742463515
 C         -2.3125990166        1.2929117607       -0.1525302884
 N         -1.6111046550        0.0912749219       -0.1486462342
 C         -0.2293195892        0.0863499476       -0.4658820500
 C          0.2135764363        0.2687051868       -1.7809836320
 C          1.5594723437        0.2530253055       -2.0542484907
 C          2.4996338257        0.0626271152       -1.0365005165
 C          3.9389269384        0.0543926883       -1.3429894109
 O          4.3799456677        0.1895158384       -2.4724000505
 C          4.7908991616       -0.1268460976       -0.1581942968
 C          6.1838188452       -0.1302540019       -0.2805708874
 C          6.9872414277       -0.2918672857        0.8242337109
 C          6.4108533405       -0.4558461652        2.0811246664
 C          5.0409562679       -0.4585008461        2.2279822870
 C          4.2230118897       -0.2933229447        1.1099670225
 O          2.8830593589       -0.3029303921        1.3231512601
 C          2.0492707707       -0.1193853918        0.2758645316
 C          0.6819657950       -0.1110856335        0.5533651480
 C         -2.3150984229       -1.1065571126       -0.2260203521
 C         -1.7157021726       -2.2463666636       -0.7590159099
 C         -2.4350538767       -3.4176020909       -0.8908564651
 C         -3.7633451280       -3.4572348984       -0.5102586476
 C         -4.3542076481       -2.3314723014        0.0393335456
 C         -3.6458906382       -1.1534759726        0.2104928513
 H         -6.0750761846       -0.8368257122        1.5276370577
 H         -6.1636218056        0.0847529274        0.0176553296
 H         -6.0765797695        0.9081960575        1.5835935992
 H         -2.5548698995        0.0240348408        2.3675035483
 H         -3.9862030126        0.8875798481        2.9336542639
 H         -3.9788837819       -0.8832392915        2.8838313071
 H         -5.3897954851        2.5302105924        0.4909784421
 H         -4.3391653266        4.5691838840       -0.3265012219
 H         -1.9441359679        4.5587839265       -0.9554195607
 H         -0.6663596023        2.4741080769       -0.8618798400
 H         -0.5117517405        0.4133662052       -2.5670493734
 H          1.9316962278        0.3856725152       -3.0586991410
 H          6.5975938422       -0.0000889484       -1.2691440603
 H          8.0610927287       -0.2905098678        0.7195740908
 H          7.0398293971       -0.5811581736        2.9493887787
 H          4.5757805673       -0.5849674753        3.1929854120
 H          0.3511426022       -0.2567713642        1.5695695460
 H         -0.6847662922       -2.2121233733       -1.0770475141
 H         -1.9575038054       -4.2934775371       -1.3037172328
 H         -4.3377723785       -4.3635486455       -0.6260229562
 H         -5.3854261152       -2.3925054762        0.3460660883
