  52
        -81.77140464
 C         -4.9481833066        0.8313329571        1.9306719337
 C         -3.6266642939        0.4517810290        1.2638889637
 C         -2.5829097889        0.2076667195        2.3725080287
 C         -3.1129733754        1.5354097817        0.3321198133
 C         -3.6031621722        2.8311698948        0.2888264007
 C         -3.0859379379        3.7572354830       -0.6016262638
 C         -2.0897449576        3.3899130023       -1.4884100726
 C         -1.5951683517        2.0991930505       -1.4698381262
 C         -2.0802354749        1.1851801684       -0.5430808444
 N         -1.6244571674       -0.1498264242       -0.5275973191
 C         -0.3047449555       -0.4976677647       -0.3678075871
 C          0.0726328774       -1.8436517376       -0.1804175328
 C          1.3875238269       -2.1843459381       -0.0162406959
 C          2.4044582221       -1.2216137505       -0.0130118182
 C          3.8053166318       -1.5988352032        0.1516260934
 O          4.1860763508       -2.7562908573        0.2678077595
 C          4.7251624039       -0.4471091261        0.1670153255
 C          6.1009117819       -0.6403086015        0.3143346887
 C          6.9665351833        0.4291733335        0.3313821770
 C          6.4689332385        1.7223351482        0.2011171577
 C          5.1161309782        1.9393785062        0.0552488462
 C          4.2355976985        0.8571376613        0.0372921969
 O          2.9184202908        1.1420772103       -0.1111521433
 C          2.0256826157        0.1206928870       -0.1422125171
 C          0.6942102839        0.4745757275       -0.3058099446
 C         -2.6864523043       -1.0753838703       -0.4609743182
 C         -2.7365935947       -2.1713585683       -1.3131250479
 C         -3.8135196641       -3.0363770998       -1.2599983554
 C         -4.8496405762       -2.7906707511       -0.3767633031
 C         -4.8194301018       -1.6730640724        0.4406512094
 C         -3.7431310568       -0.8002543995        0.4123869169
 H         -5.2754315071        0.0344108403        2.5935907894
 H         -5.7213807683        1.0161347457        1.1884301803
 H         -4.8184992534        1.7233464543        2.5382569186
 H         -1.6164597029       -0.0694102889        1.9625582353
 H         -2.4571470837        1.1111161382        2.9654853210
 H         -2.9201372281       -0.5944044009        3.0257559671
 H         -4.3956504477        3.1361109287        0.9525425751
 H         -3.4751890427        4.7639243356       -0.6114792630
 H         -1.7062831818        4.1012829123       -2.2038337263
 H         -0.8474484865        1.7897918132       -2.1841758344
 H         -0.6815627157       -2.6111039450       -0.1376805347
 H          1.6780938953       -3.2142601227        0.1230190628
 H          6.4524434414       -1.6562517092        0.4130012846
 H          8.0273681875        0.2678725983        0.4453419691
 H          7.1452180298        2.5636786708        0.2140330910
 H          4.7118473346        2.9345062510       -0.0467196563
 H          0.4612166431        1.5239738556       -0.3611992042
 H         -1.9404468558       -2.3310716262       -2.0245200840
 H         -3.8476516868       -3.8918288251       -1.9172016897
 H         -5.6931840610       -3.4625667125       -0.3318355743
 H         -5.6492411185       -1.4933126144        1.1044659717
