77
 energy: -121.505153143617 gnorm: 0.000072894866 xtb: 6.7.1 (edcfbbe)
C            4.20374075128480        3.36204918716413        0.49360960955240
C            4.76231913362318        2.19853158558363        1.32060281449992
C            4.22406165129558        2.25619701417982        2.75529810820486
C            6.27346601821037        2.19699136807490        1.30620069977189
C            7.14479430911419        3.16031917806139        1.76522191297530
C            8.51185547320141        2.93954930531895        1.64593059520652
C            8.99997567848959        1.77054495458588        1.07352898714824
C            8.13531968379761        0.79619972596094        0.61007780652867
C            6.76614851435406        1.01175656619814        0.72779039741505
C            5.64800961005995        0.18640883981940        0.33839083325007
C            5.63258487654452       -1.07639778001001       -0.24597968941324
C            4.39822030618837       -1.63674321740830       -0.51150690120484
C            3.98879912957299       -2.89777670826126       -1.07765238536861
C            4.67803440129270       -3.99554246691650       -1.56627072354191
C            3.94999629489933       -5.06332508672516       -2.06956255325661
C            2.55974411709505       -5.03597052946038       -2.09886564161776
C            1.84981277448019       -3.94895616451836       -1.61499076719224
C            2.57514722457530       -2.88910751108469       -1.09237237003518
N            2.12200153052784       -1.69274526336204       -0.56251952088003
C            0.77710228389591       -1.32016094849456       -0.44786102287557
C           -0.13550094756661       -2.13276760414146        0.23587053827432
C           -1.45075977108620       -1.77126000002428        0.35428924498594
C           -1.92848717119823       -0.55632494836452       -0.20687840079577
C           -3.28606759088533       -0.16718292035619       -0.07551184859923
N           -3.69350157185949        1.02790777221437       -0.57037463481371
C           -4.94878312508097        1.36535017925098       -0.41268787946968
C           -5.39505033510811        2.66366182165226       -0.91238748994691
C           -4.47688554937638        3.57172301833070       -1.44163292037241
C           -4.90285660533074        4.80142875426879       -1.90286326542818
C           -6.24680528820109        5.14070351626482       -1.84455309324676
C           -7.16521657407379        4.24244721851467       -1.32257731117706
C           -6.74512163440420        3.01127831801220       -0.85798619826466
N           -5.85959638278618        0.57726386801314        0.19089010767975
C           -5.40902273412075       -0.60427062958054        0.65152481650453
C           -6.36970920533436       -1.49341670905231        1.30146846111046
C           -5.99903622915057       -2.78831554489351        1.66580380222191
C           -6.91266644727432       -3.62764295879806        2.27187488420256
C           -8.20356796507248       -3.18680586528165        2.52455266806155
C           -8.57802251659939       -1.90030330881361        2.16761052846223
C           -7.66930083765329       -1.05673922742830        1.55848974207244
N           -4.16252697455875       -0.99270187772974        0.54992989672373
C           -1.01627585776410        0.25319968912318       -0.90636164271808
C            0.30849953600853       -0.11636723690573       -1.03709122433556
C            1.16688381359432        0.67857882523452       -1.82144340892721
N            1.84818181471089        1.32311148891776       -2.48633798642253
C            3.19962433890572       -0.93096939412464       -0.20517933558586
C            3.21839884241658        0.32275883105649        0.41359286510281
C            4.45000850869638        0.86801120850036        0.67220755032813
H            4.57617176018788        3.31452234930415       -0.52743857259656
H            3.11783515202253        3.31769496454226        0.46489138330018
H            4.50225792263831        4.31132163574463        0.93111850617111
H            3.13886382476589        2.18966038403287        2.75256601763246
H            4.51324783932662        3.19216091381709        3.22625909947969
H            4.62312908720399        1.43207465983765        3.34311290547113
H            6.78003994629210        4.07368110499648        2.21078335934866
H            9.20528676073696        3.68730789276949        2.00192486445617
H           10.06702552327805        1.62443007491185        0.99108762305268
H            8.51454653117464       -0.11113109812074        0.16521925906580
H            6.54633998092911       -1.59892213278981       -0.47983049764133
H            5.75664361401337       -4.01670239449588       -1.55837986062986
H            4.46909691799990       -5.92840788002165       -2.45352946069404
H            2.02050322243320       -5.87598829664009       -2.50975155742848
H            0.77151607322383       -3.92526498623330       -1.65149615364055
H            0.22374081870477       -3.04393152767091        0.69146201088720
H           -2.15125350770843       -2.39249313605807        0.88868296922787
H           -3.43401364047564        3.29534072332362       -1.47874411162998
H           -4.18593608237483        5.49968540744006       -2.30948142168273
H           -6.57707225399619        6.10332481386351       -2.20572026799085
H           -8.21222372333443        4.50433842900871       -1.27820762838442
H           -7.44716700755870        2.30026658032082       -0.45003258266090
H           -4.99169497215897       -3.11715869571418        1.46054789677008
H           -6.62017379197526       -4.62993595244749        2.54890381494443
H           -8.91639379502951       -3.84524354369216        2.99849799427856
H           -9.58240304716580       -1.55512346432776        2.36490071597416
H           -7.94414117613622       -0.05228557498049        1.27491705290088
H           -1.37275161526939        1.16559090848558       -1.36045257460957
H            2.30222938966625        0.82898014836086        0.67589343170221
