  77
       -121.44919690
 C          4.2255986279        3.3228651100        0.4088604122
 C          4.7644910421        2.1963213403        1.2968323861
 C          4.1988667965        2.3137232724        2.7151491074
 C          6.2751837445        2.1880193609        1.3047751536
 C          7.1431944519        3.1589496661        1.7530983986
 C          8.5104870578        2.9329281196        1.6551519076
 C          8.9999609645        1.7513597271        1.1153971037
 C          8.1367114171        0.7700802441        0.6613324902
 C          6.7692574861        0.9913641375        0.7569101450
 C          5.6500469736        0.1613355634        0.3682292517
 C          5.6311424392       -1.1018000947       -0.2079050980
 C          4.3933794398       -1.6540271755       -0.4854167937
 C          3.9808199614       -2.9075740149       -1.0606194349
 C          4.6669681569       -4.0078115869       -1.5491306749
 C          3.9386317436       -5.0665835782       -2.0654865760
 C          2.5483895932       -5.0286966339       -2.1098550769
 C          1.8415072131       -3.9404354409       -1.6288047256
 C          2.5668052845       -2.8882287689       -1.0903088627
 N          2.1169538709       -1.6942428216       -0.5604376419
 C          0.7753677440       -1.3139752627       -0.4495566399
 C         -0.1492334030       -2.1479769826        0.1907974550
 C         -1.4635019552       -1.7847772808        0.3106898571
 C         -1.9264072094       -0.5473436266       -0.2076621044
 C         -3.2819677312       -0.1583102269       -0.0761477402
 N         -3.6936152233        1.0391484628       -0.5590342230
 C         -4.9472594577        1.3791262219       -0.4114637455
 C         -5.3944864117        2.6757372873       -0.9072051571
 C         -4.4892278529        3.5534416358       -1.5044612936
 C         -4.9182987039        4.7810089354       -1.9668507490
 C         -6.2501796670        5.1474139638       -1.8401661036
 C         -7.1543502375        4.2790055047       -1.2480787457
 C         -6.7326267255        3.0492771293       -0.7829736499
 N         -5.8550004183        0.5811870124        0.1812176425
 C         -5.4125385086       -0.6036106624        0.6392755049
 C         -6.3736610395       -1.4925715050        1.2825900483
 C         -5.9731574660       -2.7446134957        1.7495743002
 C         -6.8873021858       -3.5813519465        2.3570924964
 C         -8.2077754239       -3.1816256405        2.5049373099
 C         -8.6112979889       -1.9385058756        2.0427372352
 C         -7.7021317713       -1.0961375493        1.4341167830
 N         -4.1654582889       -0.9831467729        0.5368208082
 C         -1.0027462376        0.2870131720       -0.8611560881
 C          0.3219131533       -0.0833379870       -0.9898222823
 C          1.1936112465        0.7543932463       -1.7156079956
 N          1.8793138715        1.4468971741       -2.3244000719
 C          3.1989244971       -0.9421726529       -0.1881381987
 C          3.2206123567        0.3095025760        0.4291803525
 C          4.4548548187        0.8496541006        0.6854128546
 H          4.6294735531        3.2328444046       -0.5965132363
 H          3.1421325716        3.2669837825        0.3467561792
 H          4.5059261735        4.2916775801        0.8147347314
 H          3.1133998600        2.2567988378        2.6931574379
 H          4.4876468266        3.2635567122        3.1582998184
 H          4.5779251005        1.5083679899        3.3408829035
 H          6.7747269409        4.0828874142        2.1741993701
 H          9.2017287474        3.6862535766        2.0030016303
 H         10.0671095252        1.5986791531        1.0494296315
 H          8.5187035777       -0.1479091551        0.2404924271
 H          6.5430530864       -1.6325095080       -0.4330677901
 H          5.7457389434       -4.0349484500       -1.5304796218
 H          4.4555244478       -5.9332329161       -2.4489371483
 H          2.0091802232       -5.8632220844       -2.5319049569
 H          0.7641520809       -3.9083101930       -1.6809092360
 H          0.2032389798       -3.0775388413        0.6141161592
 H         -2.1720945636       -2.4234210526        0.8126677822
 H         -3.4561632480        3.2551704183       -1.5960957756
 H         -4.2142132462        5.4585703925       -2.4274479152
 H         -6.5823695367        6.1092198634       -2.2024828901
 H         -8.1915840184        4.5647164570       -1.1509578455
 H         -7.4233952322        2.3615974265       -0.3203433686
 H         -4.9434594233       -3.0416064992        1.6250966911
 H         -6.5747171795       -4.5508518803        2.7159363053
 H         -8.9210809294       -3.8390144364        2.9802197251
 H         -9.6394885700       -1.6279216930        2.1591461057
 H         -7.9996061028       -0.1252031910        1.0695750700
 H         -1.3480680932        1.2204600863       -1.2780667225
 H          2.3089667477        0.8238821150        0.6889979324
