130
 energy: -200.014805209305 gnorm: 0.000059151530 xtb: 6.7.1 (edcfbbe)
C            0.74308892886842        6.09453371078082       -0.84363758390288
C           -0.14809458368237        6.15111345639955        0.21497716549918
C           -1.12352602621630        5.18210993378676        0.35735643990351
C           -1.21974699708979        4.13856031498156       -0.55866158688998
C           -2.25678005275866        3.09964109991905       -0.41844442874464
C           -1.88324911657754        1.76335589333222       -0.40165480929195
C           -2.81733021125367        0.74793420541422       -0.23973331260682
C           -2.35869129859503       -0.65132118293518       -0.21958589750879
C           -2.97225189504444       -1.63792389793953       -0.98910903863140
C           -2.53139219598888       -2.94332186824813       -0.93902450580543
C           -1.45357756973583       -3.29925445515472       -0.12862772437150
C           -1.03068891593410       -4.69041363077498       -0.09097346841274
N           -1.85626047939111       -5.70540592710427       -0.10840422224152
C           -1.08123659595834       -6.81926206391589       -0.02968627912296
C           -1.50416924294781       -8.17660218157702        0.01889255984020
C           -2.86173382362336       -8.51308069526195       -0.00468523728426
C           -3.25132075100579       -9.82690116355424        0.06731741401223
C           -2.28228609197088      -10.82332692849955        0.16767470950787
C           -0.94479632249310      -10.50397586222368        0.18747026139152
C           -0.50557595317703       -9.17339032125129        0.10846262378454
C            0.90010440751266       -8.80642587016950        0.09962483035665
C            1.91441515406334       -9.77405494704504        0.12811336568803
C            3.24643140267223       -9.43660127868249        0.08555072230534
C            3.62691294617385       -8.10130039943052       -0.00272397889120
C            2.66539237168068       -7.12167044027728       -0.02664386495225
C            1.30234478533146       -7.44373931285375        0.03962916346940
C            0.26700277026383       -6.46835612487156        0.02260112914725
N            0.28544421388737       -5.09320351050033       -0.00775749788788
C            1.37852269426854       -4.20576503679068       -0.02620425120870
C            1.60044423456118       -3.42946270028307       -1.15743037146716
C            2.61419479092084       -2.49285713614464       -1.16020465852232
C            3.40872118773572       -2.30134539203851       -0.03259080449435
C            4.42916644580342       -1.24399164929203       -0.02632710102034
C            4.51485601345788       -0.36021412764835        1.04705088409477
C            5.40795452340387        0.69080251957112        1.02486360732699
C            6.25032614663727        0.87172939677125       -0.07052060550413
C            7.17346082019599        1.99530632179216       -0.14198142134079
N            8.40206234382155        1.90607516721854       -0.56734767771493
C            8.93786114962761        3.15913172732299       -0.44571755306056
C           10.20969058146781        3.62646907239825       -0.75764922721289
C           10.46885160999410        4.96395610238919       -0.54774951262359
C            9.49273633592277        5.83005482184211       -0.05056848887068
C            8.22444636197295        5.38744073890346        0.26800298724108
C            7.96280944168451        4.03976301115113        0.08081836001515
N            6.83592616009775        3.27049407950520        0.26973991774140
C            5.57109513383137        3.72497773340810        0.67448686046445
C            5.44319710347300        4.50799061221308        1.81633334790893
C            4.19254278186283        4.95168298135225        2.20832468966486
C            3.06813944215091        4.60885695558308        1.47703994700918
C            3.19631711695039        3.82603338551010        0.34124008213133
C            4.44215592171979        3.39279054275378       -0.06938137421926
C            6.21007795742524       -0.04554357696624       -1.11855152564801
C            5.29971459399776       -1.08187461155300       -1.10201082044307
C            3.18814723421147       -3.09653218613787        1.09044266511817
C            2.18644070822163       -4.04642428932909        1.09624734852668
C           -0.83928086542230       -2.31498593599441        0.64298825875687
C           -1.28535206720141       -1.01052849093416        0.59147926024343
C           -4.16937702294410        1.07962283277395       -0.09442241508740
C           -5.18137659540502        0.02214183380135        0.10108436342174
C           -6.26243406571890       -0.09569449067095       -0.76669883778543
C           -7.20430986921632       -1.08988526990110       -0.57951617025111
C           -7.08034858506783       -1.97649985448618        0.47669782885940
C           -6.00823367888975       -1.86516866368006        1.34575392276983
C           -5.06395323721912       -0.87331031689707        1.15967632853936
C           -4.55808716166230        2.42239788456962       -0.11954621082127
C           -5.98621496556938        2.77579100237138        0.02528875034394
C           -6.63634896844348        3.49918685155796       -0.96903822171359
C           -7.97236061678654        3.82753290368179       -0.83571041526654
C           -8.67432444587096        3.44128875996688        0.29341511886730
C           -8.03369999985321        2.72310191810809        1.28878140613255
C           -6.69874830340972        2.39029796684536        1.15594003771884
C           -3.60777107342007        3.43526534421043       -0.27897786098396
C           -4.02921350680221        4.84996112846528       -0.30860039476720
C           -3.71348052428389        5.65283494571104       -1.40022443056029
C           -4.10898689031425        6.97675128080182       -1.43375539725948
C           -4.82079188497185        7.51716897853336       -0.37625086357983
C           -5.13566110972160        6.72615134881440        0.71569682007937
C           -4.74449500984980        5.40096248935754        0.74995316016493
C           -0.30918894987698        4.07925313885332       -1.60937218557466
C            0.66108698783777        5.05449918853333       -1.75408669231186
H            1.50237637235601        6.85406620427942       -0.95606978829913
H           -0.08489711774094        6.95700917262231        0.93187918375139
H           -1.81318135600597        5.22728241275208        1.18730791077679
H           -0.83919297208922        1.50628560890860       -0.51423362346932
H           -3.79522654344149       -1.37552189691515       -1.63658103008554
H           -3.01276277299467       -3.70945201867471       -1.52647426801538
H           -3.57843778117983       -7.70965929198351       -0.07549029233789
H           -4.29831544755558      -10.09162564908631        0.05050109948760
H           -2.58414285843477      -11.85899005792698        0.23053755919734
H           -0.23183590086349      -11.30913427622563        0.26847246194182
H            1.65682147868357      -10.81966059376267        0.17782029134371
H            3.99914476978943      -10.21085177613337        0.10988037749413
H            4.67246685748081       -7.83582554283231       -0.05554409276601
H            2.96290035784007       -6.08824929011689       -0.11130415704792
H            0.96667236079644       -3.55892320065301       -2.02221120044790
H            2.77444332340389       -1.87972812496364       -2.03439906652729
H            3.85264591072070       -0.48251079197739        1.89173510629673
H            5.45625314642071        1.36954109100573        1.86376660765227
H           10.95499686682714        2.95594192578610       -1.15380733199875
H           11.44691163906722        5.35941534943486       -0.77883368680299
H            9.73677284681433        6.87317371549212        0.08622067949685
H            7.46926314721279        6.06437222928248        0.63889240956359
H            6.32011846060923        4.75168131930706        2.39761039042573
H            4.09787297278872        5.56109010959267        3.09482783882118
H            2.09155599143162        4.95034204334237        1.78452949733977
H            2.32041141598723        3.56323514673338       -0.23176088773650
H            4.54876152972870        2.79549067600088       -0.96268683526331
H            6.89133979587877        0.08132989798168       -1.94551466460015
H            5.26603470455488       -1.78289330717815       -1.92324828896069
H            3.81264878417883       -2.97131042284178        1.96253895271088
H            2.01394929007957       -4.66143287413129        1.96787864796822
H           -0.02890640027213       -2.56931839831493        1.30910706546198
H           -0.81258170532883       -0.26095831891944        1.21030232181370
H           -6.35603358048753        0.58872674448876       -1.59760181262352
H           -8.03767270322355       -1.17328325155377       -1.26184304546831
H           -7.81672191703450       -2.75302320765685        0.62149235888199
H           -5.90605108641136       -2.55472393422063        2.17073740060885
H           -4.23058491072512       -0.78394043249647        1.84201745321533
H           -6.09174368478731        3.79606482221141       -1.85396571935476
H           -8.46745861915058        4.38686463841564       -1.61615220808270
H           -9.71798580717278        3.69915480790285        0.39727460074474
H           -8.57626543803079        2.42022575458103        2.17247852277769
H           -6.19921240525906        1.83453416400898        1.93649672044046
H           -3.16378493808900        5.23089675591728       -2.22956878424266
H           -3.86130294787848        7.58900504044247       -2.28870218933635
H           -5.12914994092117        8.55191820462680       -0.40289287442228
H           -5.68882040553465        7.14314301121038        1.54467396348010
H           -4.98495892844272        4.78811574774866        1.60673449010164
H           -0.37837531436646        3.27245786797026       -2.32584478183143
H            1.35590917763102        5.00425440694399       -2.58021069453708
