130
 energy: -199.931349134125 gnorm: 0.000096780104 xtb: 6.7.1 (edcfbbe)
C            5.65417606923402        1.40081108661488        0.87077299954471
C            5.78596624661501        0.47435937345838       -0.15012592361680
C            4.81344317272657       -0.48804495292700       -0.34515162353915
C            3.69041411700956       -0.53421876582103        0.47717029165460
C            2.68449375751354       -1.60258000155228        0.32758884084935
C            1.33703651640045       -1.28349638789620        0.23288982850181
C            0.36508564788870       -2.26754560429637        0.09245994296802
C           -1.05078655571436       -1.86857013577800        0.02705774426507
C           -2.01904750535921       -2.46954627936849        0.82896542776107
C           -3.33173064955630       -2.04405368941798        0.79076777888728
C           -3.70575107911943       -0.99559020241798       -0.04469507407282
C           -5.05667061334089       -0.44784375038540       -0.00548549029460
N           -6.17941182240163       -1.10029244436139       -0.13376159990054
C           -7.16318207117843       -0.16064254742632       -0.08380012306415
C           -8.56617806438571       -0.35141445236418       -0.19706451796454
C           -9.10972803857361       -1.62578476905244       -0.39834746699072
C          -10.46601904951383       -1.78795727287981       -0.53043860144617
C          -11.29786166673152       -0.67197671626421       -0.46552982295856
C          -10.77507092203139        0.58504295281933       -0.26306639847350
C           -9.39609172792143        0.79233498326806       -0.11510015903194
C           -8.81909795406167        2.10452581685940        0.12704446898801
C           -9.61460029790740        3.24909849703706        0.27251879075466
C           -9.07087342995491        4.48591582741257        0.53268677895129
C           -7.69438648017446        4.63252986674803        0.67276483006023
C           -6.87803862470890        3.53767953212739        0.52996991423270
C           -7.41296146123696        2.27320467526214        0.24666068342291
C           -6.60921346541956        1.11155457365841        0.09267013929303
N           -5.25566690662622        0.91367180652866        0.14544533974187
C           -4.17564052140194        1.78949457702575        0.33942859611371
C           -3.33980838063883        1.58268911299841        1.44366151669017
C           -2.14913144501447        2.24741515440351        1.54877559132583
C           -1.69926581027581        3.11696276511775        0.52400736553461
C           -0.36647363004811        3.61653230013679        0.52954849733465
C            0.29848103840623        3.98334517322308       -0.68089492214265
C            1.62717586077337        4.24583993862306       -0.71807143770658
C            2.41892746886461        4.21865823068599        0.47535994442928
C            3.80449152327296        4.37147950029794        0.51161817259371
N            4.47042255972968        4.70310870300272        1.64015157523256
C            5.74740435018314        4.87444370804734        1.29054763182115
C            6.85408110916006        5.22683469596752        2.07913944836290
C            8.08599703152172        5.27752060328687        1.47089552971609
C            8.24803666050030        4.98290057849473        0.11208005295929
C            7.17170169103845        4.64138167532167       -0.69555104442334
C            5.92399775409378        4.60790515559090       -0.10662517168316
N            4.67778126820375        4.28573556728468       -0.58323111067429
C            4.42877975109909        3.68170522871300       -1.82200138253500
C            4.89587959567276        4.27308911265745       -2.99221297410375
C            4.68143743343513        3.65300199267554       -4.20951114217405
C            4.00234044192012        2.44740340754597       -4.27034598026002
C            3.53130083052722        1.86228566566941       -3.10535742379098
C            3.74160057997654        2.47000590545840       -1.88382007674359
C            1.71653445840408        4.04114500087003        1.71329165009521
C            0.40273740605797        3.71911786963555        1.73217206074962
C           -2.60656176367706        3.37994135825706       -0.53455128651513
C           -3.81545422246701        2.74188449889962       -0.62241734198516
C           -2.74885146393527       -0.42361697740781       -0.88191941064168
C           -1.43949967813736       -0.85071116631715       -0.84027801796822
C            0.75119208385001       -3.61120441417106        0.03386627013687
C           -0.26116269413359       -4.67030657018169       -0.14818499246176
C           -0.36970086325425       -5.71675327584753        0.76241236687815
C           -1.32091782987488       -6.70353896613557        0.58389399406295
C           -2.17366951406594       -6.65997249441874       -0.50614564711579
C           -2.07245339963090       -5.62211688581201       -1.41700948136103
C           -1.12385327244763       -4.63278639398826       -1.23948880227549
C            2.10512243504112       -3.94458561841928        0.13376890432281
C            2.51582811364733       -5.36384500741036        0.08036262977289
C            3.21107689811315       -5.93763303878104        1.13962305279275
C            3.59197455751831       -7.26534181433119        1.08915437246934
C            3.28676330110753       -8.03514699294842       -0.02044199984672
C            2.59616914357830       -7.47096743790450       -1.07951529931552
C            2.21092022326744       -6.14446035270313       -1.02968459685150
C            3.07289824916386       -2.94762315573447        0.28554037523726
C            4.49574416132775       -3.32063037402907        0.41825003673205
C            5.22005053729829       -2.93110512695768        1.54067251662245
C            6.54864579806329       -3.28723090018134        1.67480830122102
C            7.17194967342784       -4.03368404987454        0.68916655275510
C            6.45923160098753       -4.42272161346715       -0.43229366486596
C            5.12947857015339       -4.07067043418231       -0.56727044027586
C            3.54127263583684        0.43475373555099        1.46596307619706
C            4.52166669944577        1.38989204015643        1.66761913977986
H            6.42960015036108        2.13294850406363        1.04273772286884
H            6.65492124664775        0.49621162481874       -0.79147072126171
H            4.92217851786394       -1.20902677953704       -1.14169506213123
H            1.03483535437054       -0.24591993349748        0.27555920036275
H           -1.73403094052071       -3.25937027292477        1.50746083961432
H           -4.07489540805083       -2.50138277120455        1.42590623370320
H           -8.42856745056634       -2.46088556447170       -0.45024910556802
H          -10.88953661528727       -2.76895213956763       -0.68688632002014
H          -12.36593401100034       -0.79349642461550       -0.57431989805114
H          -11.45820604773012        1.41849609833132       -0.22176482461961
H          -10.68665006090056        3.17295314418676        0.18818543659090
H           -9.71681451213852        5.34512214290083        0.63785425965963
H           -7.27043050068276        5.60068975100245        0.89409698707597
H           -5.81072003849209        3.64408921443411        0.64982645890732
H           -3.63838294308852        0.87008734015031        2.19884353112047
H           -1.50907305340683        2.03975617111104        2.39104620621454
H           -0.26305284954322        4.00269740078001       -1.60241304885368
H            2.09304810995791        4.51610027613901       -1.65313592136204
H            6.72206972138549        5.43983948134666        3.12724658982265
H            8.95730514209377        5.54280518511124        2.05147253115425
H            9.23718132601203        5.01979917180879       -0.31917786766475
H            7.31472654531424        4.39880599144262       -1.73747729178458
H            5.40553171747796        5.22392750913312       -2.94389183394828
H            5.04259036814775        4.11744280681358       -5.11522672088853
H            3.83874320518551        1.96687739510910       -5.22304429591593
H            3.00363014792295        0.92104714321767       -3.14490266957233
H            3.38327292611793        2.01434554801443       -0.97405090598448
H            2.28950986290213        4.13678011419507        2.62149536605081
H           -0.09383410125058        3.57540929220823        2.67983940714677
H           -2.34441675165181        4.10562807738133       -1.28857761971001
H           -4.48233279091477        2.93662553575412       -1.45100464166489
H           -3.03340126248519        0.35398905227756       -1.57476329716885
H           -0.70723453606802       -0.39723272788542       -1.49267986413358
H            0.28772004233178       -5.74803776624843        1.61927660992883
H           -1.39714145815856       -7.50945749135991        1.29920244914842
H           -2.91577449603222       -7.43218234155184       -0.64478381951031
H           -2.73556364389782       -5.58260122106996       -2.26872059988700
H           -1.04175402805112       -3.82667498932885       -1.95469969610215
H            3.44475817469394       -5.34005618192184        2.00909981273290
H            4.12917531818301       -7.70079473529989        1.91910970218986
H            3.58613777981362       -9.07214600113767       -0.05957231500631
H            2.35607081670706       -8.06672765354009       -1.94812414697432
H            1.67655815677331       -5.70433245958874       -1.85948344225652
H            4.73352917388537       -2.35351104471317        2.31366714049906
H            7.09967461344159       -2.98121996454846        2.55213294096651
H            8.21040449310672       -4.31122061004915        0.79454177312637
H            6.94086235423026       -5.00354300454368       -1.20545270332111
H            4.57777574417797       -4.36927805067970       -1.44708479332112
H            2.66515078381603        0.41857271817206        2.09894207278216
H            4.40545336390813        2.12680161681630        2.44821223472591
