103
 energy: -159.374641931898 gnorm: 0.000175673684 xtb: 6.7.1 (edcfbbe)
C           11.42936184966249       -1.36628732751974        1.15096273264990
C           10.40222861911142       -1.92004169684775        0.40437748915181
C            9.31888980146803       -1.15146040825344        0.02564520054731
C            9.24450934495536        0.19018483175850        0.39922905564600
N            8.14694941332543        0.97335581608899        0.02145704006141
C            8.33903189927306        2.31245605565379       -0.33837905862215
C            7.40393576643903        3.28334557014845        0.01982586030159
C            7.59859528786757        4.60285708214568       -0.33922008033569
C            8.72652274313990        4.97817472154500       -1.05047501219423
C            9.66046879499546        4.01840495543135       -1.40508843046536
C            9.47079250270534        2.69499774314907       -1.05812973030204
C            6.86543031492701        0.41896859255939        0.00328008367070
C            6.48567360788444       -0.52742911158268        0.95629415125052
C            5.22349005620067       -1.08013126578647        0.92887370801731
C            4.29030153353663       -0.69924266846536       -0.03498140865417
C            2.94685366821232       -1.28685046327789       -0.05582677751040
C            1.82933720534862       -0.50800611961945       -0.35133072489033
C            0.56203772132274       -1.05361305643174       -0.36340959321077
C            0.37370458381271       -2.40464336384687       -0.07604531471426
C           -0.92729384222721       -3.04963929562229       -0.08125155688830
N           -1.10088337362402       -4.29799201287282       -0.44026853177961
C           -2.43223536811839       -4.53937789676407       -0.33072490397092
C           -3.12746276065659       -5.74215314182723       -0.63683875438858
C           -2.45032684211984       -6.86598125326375       -1.12165337068501
C           -3.14121662420666       -8.00946621152697       -1.43496592233418
C           -4.52445845638732       -8.03988109291139       -1.26854009096425
C           -5.19944758352964       -6.94192661375560       -0.78882502233325
C           -4.52843211817269       -5.75656480200768       -0.45056562034418
C           -5.20800019005758       -4.58950954489285        0.08491417994578
C           -6.58780117773171       -4.59453920404651        0.33430655153705
C           -7.23738477515817       -3.50945441982515        0.87300850332811
C           -6.52210596906238       -2.36434527525347        1.20769251160028
C           -5.16977832459290       -2.31691579833672        0.97646961587545
C           -4.49221820601974       -3.40076327595125        0.39907081902048
C           -3.09490920717423       -3.40082676755114        0.12603196714263
N           -2.11411700053796       -2.44518772631300        0.27279473671669
C           -2.24853837018952       -1.12011886352338        0.73138434584141
C           -1.65152538476321       -0.74190934114421        1.92781687506219
C           -1.77699657968779        0.56477371375865        2.36574827766963
C           -2.50215805352846        1.48337563716428        1.62940737296163
C           -3.10491010381304        1.11076003319251        0.42892689384472
C           -3.86150969266560        2.08677362901983       -0.37433107318670
C           -3.45648245184783        2.33533174412647       -1.68171822374080
C           -4.09379608137294        3.27619189130926       -2.46333262868125
C           -5.17381171560112        4.00386164341706       -1.96180382582986
C           -5.84116170369304        4.99778704574871       -2.73550965912320
C           -6.89037905260027        5.68966169833983       -2.23529881353459
C           -7.37366229992521        5.44520508503577       -0.91615323267159
C           -8.45712088048228        6.14400294740242       -0.38160324720656
C           -8.90632155574349        5.87988012286174        0.89934194848610
C           -8.29078197512052        4.91499649682444        1.67510111454769
C           -7.20220774875790        4.19376563738966        1.18254829636235
C           -6.55157308258339        3.18156343350973        1.94598414660017
C           -5.48839899449721        2.50276515965504        1.45667513605652
C           -4.96834191619667        2.77204254485695        0.15507480178620
C           -5.62356321898935        3.74342305673376       -0.64359364842456
C           -6.73080206115846        4.45975086711262       -0.12626359637603
C           -2.95821911180426       -0.19410194443949       -0.02426968989162
C            1.49327556828118       -3.19447577328399        0.19301991940780
C            2.75556759481539       -2.64352010273923        0.20879837506059
C            4.67276940345195        0.25334032462069       -0.97892881603495
C            5.93850648975338        0.79860876001086       -0.96860799313332
C           10.27963740135934        0.74202412267523        1.15351317360719
C           11.36271129767417       -0.03277305228594        1.52030407395591
H           12.27586585079129       -1.96934704644270        1.44232441572870
H           10.44836548081259       -2.95731304835418        0.10658264229195
H            8.52404950684864       -1.58282365708518       -0.56519250565355
H            6.52878490560784        2.99503555195531        0.58372033590429
H            6.86776343744940        5.34518030621637       -0.05326111712630
H            8.87690796481440        6.01100680945633       -1.32590230184347
H           10.54031366969716        4.30065779734516       -1.96451138085963
H           10.19573675907920        1.94688675686055       -1.34418870542570
H            7.18890294355192       -0.82061583690398        1.72211331941200
H            4.94359776350069       -1.79684078810901        1.68694268520063
H            1.95369637405323        0.54490215270068       -0.55893822862537
H           -0.27829519190755       -0.42547447674785       -0.61722933650417
H           -1.38049911941669       -6.79610990755940       -1.24280026200363
H           -2.62325714296344       -8.87943157225208       -1.81106857086098
H           -5.07390300362075       -8.93609432882498       -1.51885210978601
H           -6.27001106724771       -7.01283884353829       -0.67895437043649
H           -7.16995686184840       -5.47288802797287        0.10687779084932
H           -8.30249358562708       -3.55077656386905        1.04769324710129
H           -7.02553048404048       -1.51688666172479        1.64940456912428
H           -4.61900014794601       -1.43368465942880        1.25658327410307
H           -1.09479077298254       -1.46884956873438        2.49957919479415
H           -1.30969911443749        0.86517228897826        3.29147608470914
H           -2.59483120524875        2.50322270830849        1.97259825804846
H           -2.60969815397723        1.79266504101303       -2.07816958591485
H           -3.75354203556475        3.46167847974829       -3.47199624946444
H           -5.48300117665427        5.18483981735301       -3.73810362545708
H           -7.38921438410928        6.44314980746746       -2.82835063288447
H           -8.94512197775809        6.89815831696944       -0.98241495228758
H           -9.74680805921166        6.43069502169416        1.29630029574434
H           -8.64982811992271        4.71061608197160        2.67371299320517
H           -6.93509002453230        2.96317935537679        2.93283098754055
H           -5.02098125997019        1.72848398473893        2.04730614378484
H           -3.41849577633194       -0.50155470170648       -0.95267014134172
H            1.34492815202568       -4.24555867756857        0.38569598884109
H            3.61110953714652       -3.27228584625863        0.40727655266971
H            3.97815183676967        0.54478448321412       -1.75297413433876
H            6.22369061983829        1.51989979465282       -1.72056463142210
H           10.22538508438626        1.77926719352376        1.45061149810527
H           12.15655116432609        0.40639139252762        2.10656795963472
