103
 energy: -159.311275460930 gnorm: 0.000066642637 xtb: 6.7.1 (edcfbbe)
C            8.22604901123969        1.65646601501459       -1.51758779772640
C            7.02547631748774        1.73241340757233       -0.83032697914230
C            6.44788997158794        0.59283199075583       -0.30612625723742
C            7.06737225495058       -0.64693250136192       -0.46657156385933
N            6.47697004304898       -1.80126912388058        0.06202493233841
C            7.25888930702911       -2.80524726976745        0.63700401816032
C            6.87523417144403       -4.14272404597000        0.52972165848062
C            7.64686110995029       -5.13580430954042        1.09991065412700
C            8.81276563715598       -4.81753053760453        1.77724110946697
C            9.19930935618042       -3.49143259025583        1.88481641825753
C            8.43073016037796       -2.48966241006109        1.32541277852810
C            5.08412726521060       -1.92259776614400        0.03234786863445
C            4.37041065513148       -1.51244209600391       -1.09414328885194
C            2.99510194895847       -1.59030338465195       -1.11445875804174
C            2.28498588355530       -2.06226767469663       -0.00897554753613
C            0.81782570931394       -2.04124382422032       -0.01202189936889
C            0.09750067821491       -2.36001814243897       -1.16343511749407
C           -1.27551923400330       -2.25958562985877       -1.18432621067547
C           -1.97434482657511       -1.81706014851812       -0.05964540966282
C           -3.41864650103642       -1.70955695566728       -0.16176945066681
N           -4.13751579009920       -2.54442860033400       -0.87203882894954
C           -5.42626704977264       -2.14394153725536       -0.73054452094928
C           -6.59368976367038       -2.76190380816033       -1.25865878906070
C           -6.51191743803307       -3.92918466337982       -2.02490019302754
C           -7.65300189480893       -4.53612938093018       -2.48653032971989
C           -8.89428214402541       -3.98221840836077       -2.17993108516808
C           -8.98550646989783       -2.83023209670394       -1.43392192644943
C           -7.84203377711475       -2.17315019355110       -0.95476744528237
C           -7.90088230450878       -0.93264419628016       -0.20056458950158
C           -9.11597472222169       -0.27201583731273        0.02843095302634
C           -9.18005720112252        0.92902265639333        0.69425465374096
C           -8.01421367936698        1.53806351510734        1.14648716124528
C           -6.80388451296437        0.92007951220040        0.95066770172933
C           -6.71960512556550       -0.32212462807233        0.30513673643797
C           -5.49291495907273       -1.00832161146537        0.07642446474783
N           -4.19259647999984       -0.74765386306086        0.44791056605080
C           -3.73510713704310        0.26764965342576        1.31439663706993
C           -4.17169705344882        0.27572213366132        2.63867698928291
C           -3.76825738677938        1.30075304242177        3.47680468814741
C           -2.93653062042908        2.29876083949408        3.00980965065807
C           -2.45445799871501        2.27873727228794        1.69534582887888
C           -1.58807152750972        3.34926732945753        1.22388894457193
C           -1.95286111043128        4.67658408931205        1.47164501511039
C           -1.24011342497776        5.73040611688977        0.96663881872175
C           -0.05635974646754        5.51201850558343        0.19097606831868
C            0.68007962850972        6.56565277866395       -0.34091193773001
C            1.84488637152035        6.33191922119002       -1.06583546117667
C            2.31943819623123        5.03353601331092       -1.25443686496658
C            3.52410020115050        4.76497486038363       -1.96868103771231
C            3.98048456256958        3.47043207791042       -2.12457359560627
C            3.28745318244075        2.40572013915032       -1.58753327610782
C            2.07075356463465        2.61861138674465       -0.87268399986868
C            1.34897151293434        1.56869622691049       -0.31038530813493
C            0.15488952869391        1.79867072373919        0.36719570172648
C           -0.36330181482478        3.08346154021497        0.50389190868444
C            0.38196401962853        4.17741255181660       -0.01272720742432
C            1.58620223920670        3.94330590212001       -0.71588167291657
C           -2.86855841374430        1.24348562460864        0.85045320963195
C           -1.26398434420192       -1.53813311368793        1.10612998804179
C            0.11185281489137       -1.65398774462411        1.12626919641211
C            3.00652785085251       -2.49583116897976        1.10227577805296
C            4.38397002705225       -2.43667835123990        1.12373997209663
C            8.27453224046345       -0.71849569777038       -1.16110117857675
C            8.84630315213010        0.42783059495937       -1.67803114282906
H            8.67682548390456        2.54893212196414       -1.92435353280707
H            6.53632407261430        2.68502926185784       -0.69105808392986
H            5.51719224929852        0.65802048331079        0.23843266092608
H            5.97328492658995       -4.39498438730668       -0.00850633838502
H            7.33969555625764       -6.16702978739883        1.00664421023416
H            9.41527603435685       -5.59686708176983        2.21818976465621
H           10.10309520654543       -3.23326308132697        2.41682826568018
H            8.72814915012693       -1.45588880200590        1.42302763772065
H            4.90776040512445       -1.13011721931659       -1.95018447492125
H            2.45879318938619       -1.25745631492785       -1.99152541877505
H            0.62231783345485       -2.70253340014133       -2.04313405365504
H           -1.83626441214540       -2.51130438388197       -2.07079497363144
H           -5.53150430955761       -4.33156634546429       -2.22733363338843
H           -7.59535337605843       -5.43884933917378       -3.07672808985660
H           -9.79618436306801       -4.46237488322951       -2.53170762506300
H           -9.96820182056345       -2.44146259303363       -1.21846298403102
H          -10.03588913288887       -0.70155391384976       -0.33404908970982
H          -10.13537019720454        1.40798440424910        0.85130462377023
H           -8.05837698666824        2.49558711977792        1.64412796381040
H           -5.90230491390673        1.40876198886010        1.28322208924097
H           -4.83426854745406       -0.50216892024210        2.98755054844729
H           -4.10964181014537        1.31784405472599        4.50117630459867
H           -2.62200541876215        3.09103360990545        3.67249248114903
H           -2.85896356822884        4.86570421214546        2.03076374319858
H           -1.56536986156682        6.74614922703238        1.13460297822581
H            0.34086330641017        7.57948749559244       -0.18357534984818
H            2.39699804962903        7.16329320407665       -1.47955478036089
H            4.07503790882791        5.59624273449429       -2.38262601491813
H            4.89476284111037        3.28887747444960       -2.67241953577980
H            3.65180094097175        1.39576343791919       -1.69829736847427
H            1.72372392007839        0.56084677188672       -0.39607687131347
H           -0.36158752028192        0.95995151749998        0.80714911461736
H           -2.54970947858999        1.22735577994450       -0.18158418781164
H           -1.78478921510967       -1.23903080727820        2.00416995316725
H            0.65121373016299       -1.40872248897022        2.02985820979983
H            2.47990032013913       -2.89078923890219        1.95832198935578
H            4.92937854852275       -2.77093600131865        1.99418399014884
H            8.75450154876541       -1.67686780739196       -1.29526592297700
H            9.77981999406839        0.35960712275453       -2.21692733074443
