103
 energy: -159.311305487237 gnorm: 0.000163864759 xtb: 6.7.1 (edcfbbe)
C            8.13176733218828        1.57629640020382       -1.78659301858487
C            6.93250212562152        1.69068361762290       -1.10236976099522
C            6.37533357168733        0.59046686870412       -0.48078186768952
C            7.01611080869020       -0.64730829009817       -0.53745909779596
N            6.45156275109876       -1.76390657629619        0.09289309475568
C            7.26195856411149       -2.68119233659944        0.76587686001822
C            6.92976283986812       -4.03637106114078        0.78162448743354
C            7.73172908491044       -4.94124384794354        1.44872580245333
C            8.87727840336488       -4.51644754629369        2.10199529664829
C            9.21316137047813       -3.17241122286669        2.08687519666459
C            8.41383302888643       -2.25790895150271        1.42976236207031
C            5.06389460167183       -1.92455604170691        0.07252267284434
C            4.34010270318561       -1.60740204037090       -1.07769473856913
C            2.96697438032611       -1.71479587428581       -1.08974246926894
C            2.26625147743383       -2.12780020559135        0.04534803985898
C            0.79945426102709       -2.12090783630852        0.04869730364502
C            0.07288802420932       -2.47577545329080       -1.08879210216007
C           -1.29914436151137       -2.36450542873046       -1.11104498216902
C           -1.99336403485450       -1.88009237563799       -0.00042610807968
C           -3.43370410819258       -1.74177159795723       -0.11319724292331
N           -4.16689556539118       -2.55499132035213       -0.83456051508029
C           -5.44517331359996       -2.11806945706103       -0.71000467953605
C           -6.62162956472148       -2.69454480888512       -1.26432741640384
C           -6.56179517777759       -3.85547520227561       -2.04217343495785
C           -7.71152101177492       -4.41696420595902       -2.53853018043094
C           -8.93977196251712       -3.82240933482916       -2.25668224984870
C           -9.00928977319260       -2.67733717820351       -1.49777693681627
C           -7.85613309769151       -2.06751973847586       -0.98078529109325
C           -7.89148217725747       -0.83717790775194       -0.20852035770643
C           -9.09138147134320       -0.14864579946494        0.01848854536169
C           -9.13151515516946        1.04273724915331        0.70333941961570
C           -7.95550501111009        1.61339688317384        1.17878958238712
C           -6.75981116302439        0.96643265195512        0.98693806431600
C           -6.70086312564312       -0.26655800505736        0.32127225669487
C           -5.49061356877996       -0.98311923353083        0.09981291295468
N           -4.18900243344715       -0.75965328961806        0.48821934469747
C           -3.71113120561122        0.24748462164893        1.35404068340949
C           -4.12573497418053        0.25186711711890        2.68539752869202
C           -3.69155628627014        1.26435285843319        3.52377627272841
C           -2.85141476636006        2.25216841114821        3.05058210792612
C           -2.39438647308865        2.23768543399652        1.72659119867467
C           -1.51930295819954        3.29564726586735        1.24635649919232
C           -1.84068446913603        4.62709064423528        1.53248494873046
C           -1.12612018778282        5.67266453347084        1.01401761733905
C            0.01384959785078        5.44126063210847        0.17886124281093
C            0.74731977362622        6.48714066466330       -0.37229394290001
C            1.86765690654311        6.23989197007559       -1.15956481819200
C            2.30192111139778        4.93441098962962       -1.39282758911240
C            3.45939242252437        4.65101346545793       -2.17542268141705
C            3.87666618021161        3.34936903054737       -2.37576417189823
C            3.19116275905450        2.29176026199520       -1.81544355334840
C            2.02028806918267        2.51987164734871       -1.03269418887211
C            1.30678528805862        1.47752590876597       -0.44589660525020
C            0.15435151890526        1.72277904023180        0.29496450983791
C           -0.33200486472332        3.01541381473820        0.47042126601070
C            0.41130463459117        4.10090258654097       -0.06639862710504
C            1.57353762667085        3.85199538717041       -0.83242839099257
C           -2.84177616649124        1.21605775608066        0.88121777639482
C           -1.27866687891267       -1.57905027184567        1.15743950672814
C            0.09649627132448       -1.70015674968185        1.17733285290513
C            2.99925991093677       -2.47647950867578        1.17913658669085
C            4.37473508255316       -2.38435047304102        1.19506436266083
C            8.22210481491484       -0.75792737372351       -1.22870302302128
C            8.77240241277426        0.34903886510834       -1.84510110730022
H            8.56595010171483        2.43825107685029       -2.26998799198786
H            6.42816132066506        2.64353638983054       -1.04161318503575
H            5.44461206725188        0.68623071744889        0.05922399827429
H            6.04397791204826       -4.37221162832887        0.26256601333833
H            7.46452377593041       -5.98768752201891        1.45084737454492
H            9.50340046562938       -5.22733009247070        2.61912180027609
H           10.10080804492915       -2.83099456194597        2.59875620862496
H            8.67141554494950       -1.20893174968078        1.43105379327664
H            4.86789846050230       -1.27104637440236       -1.95854103350311
H            2.42478100007382       -1.45060801969625       -1.98631967683667
H            0.59201321712827       -2.85104492885354       -1.95841434529689
H           -1.86344648165224       -2.63691552714329       -1.98908873234411
H           -5.59109703887287       -4.28866731270362       -2.22708727191611
H           -7.67076681182796       -5.31422729137343       -3.13836925630683
H           -9.84870336612332       -4.26489843971850       -2.63846350233005
H           -9.98275744909267       -2.25537844832698       -1.30410996318716
H          -10.01857656602635       -0.54890519952183       -0.35862197664752
H          -10.07582741593962        1.54355267982634        0.85869702640464
H           -7.98044346670655        2.56314229336665        1.69240509505528
H           -5.84971825847973        1.42392073878853        1.34002158235496
H           -4.79288246816524       -0.51939408494065        3.04016225983848
H           -4.01413454433468        1.27838750083158        4.55430271301713
H           -2.51034661231042        3.03129735739924        3.71566688257812
H           -2.71724263423518        4.82777367045021        2.13302181780534
H           -1.41903222095385        6.69249708446616        1.21384869650177
H            0.44005322405786        7.50545680006870       -0.18170095677428
H            2.41664747088735        7.06553331883040       -1.58864264546753
H            4.00574564844012        5.47642673233197       -2.60687322905024
H            4.75405953306095        3.15665163052420       -2.97747417582517
H            3.52673627512103        1.27602887239646       -1.95967858153879
H            1.65481513054223        0.46331417741268       -0.56309896527493
H           -0.35395043543672        0.88891943308730        0.75312485222355
H           -2.54479398771956        1.20431979958264       -0.15732398209546
H           -1.79437690413148       -1.25420697743843        2.04917855323662
H            0.63769984791310       -1.42941162296319        2.07234652517141
H            2.48355114328201       -2.82944280766321        2.05975210542893
H            4.92631508910208       -2.64819519599748        2.08554760603491
H            8.71821467392625       -1.71607310041280       -1.28106637760027
H            9.70494313630721        0.25054767667701       -2.38096331041544
