  64
       -101.00154689
 C         -6.5373970344       -1.6721610427       -0.2703687555
 C         -5.5847718490       -0.4822941168       -0.0497171187
 C         -6.3906281167        0.8114382170        0.1723391111
 C         -4.7507247032       -0.7486567911        1.1871961029
 C         -5.3775291451       -0.9409607226        2.4105014617
 C         -4.6633952596       -1.1758746510        3.5709921243
 C         -3.2800167984       -1.2157676202        3.5225654742
 C         -2.6304122369       -1.0273670424        2.3225951549
 C         -3.3512624005       -0.7986794971        1.1444115068
 N         -2.6716664299       -0.6177456764       -0.0447348063
 C         -1.2480692994       -0.6698017906       -0.0397552673
 C         -0.5976574127       -1.9082395206       -0.1254049675
 C          0.7706558724       -1.9443548363       -0.1249486486
 C          1.5267431920       -0.7633397575       -0.0422428573
 C          0.8765587849        0.4912501827        0.0473254718
 C         -0.5252717932        0.4990540546        0.0466415886
 C          1.6655709036        1.6954324885        0.1346003114
 C          1.0960665363        2.9679709867        0.2282583499
 C          1.8829590980        4.1053932933        0.3118265891
 C          1.2696549329        5.3717680319        0.4045887836
 N          0.7676142403        6.4015730891        0.4784846606
 C          3.2884284064        4.0030432439        0.3043106313
 C          3.8654075687        2.7687853594        0.2124625788
 C          3.0823212291        1.6014709529        0.1262778413
 C          3.7353351158        0.3384191032        0.0307964846
 N          5.0552879379        0.2431003442        0.0165158081
 C          5.6846347175       -0.9265510318       -0.0715914774
 C          7.0739352506       -1.0370015912       -0.0909617696
 C          7.6857627698       -2.2731805161       -0.1828822177
 C          6.9242012406       -3.4310943924       -0.2574631541
 C          5.5429360204       -3.3610287975       -0.2418999027
 C          4.8914007336       -2.1340549941       -0.1515757038
 N          3.5616006963       -2.0223208715       -0.1379192424
 C          2.9540843975       -0.8550527052       -0.0523273349
 C         -3.3282278680       -0.3915196441       -1.2393417640
 C         -2.5863974321       -0.2457153795       -2.4177337302
 C         -3.2126347995       -0.0130389160       -3.6223412601
 C         -4.5935113961        0.0773054302       -3.6750552387
 C         -5.3292288129       -0.0755610726       -2.5143755151
 C         -4.7262705143       -0.3134217160       -1.2870496486
 H         -7.1822716065       -1.8174225083        0.5914845159
 H         -5.9628417039       -2.5831210260       -0.4273178065
 H         -7.1661319716       -1.5089812284       -1.1409065945
 H         -7.0120254271        1.0329807699       -0.6906204456
 H         -5.7129889880        1.6481182803        0.3313688793
 H         -7.0347695847        0.7218966460        1.0424650196
 H         -6.4547833270       -0.9060640793        2.4665422500
 H         -5.1828573562       -1.3219925688        4.5053846893
 H         -2.7059102862       -1.3922178102        4.4193816910
 H         -1.5524245090       -1.0546208031        2.2890587760
 H         -1.1834663261       -2.8123074762       -0.1906334725
 H          1.3053336006       -2.8792944816       -0.1910197501
 H         -1.0722496547        1.4264949002        0.1101438656
 H          0.0244648387        3.0931747936        0.2374599696
 H          3.8876409471        4.8985592521        0.3707235349
 H          4.9384324913        2.6539178954        0.2034147925
 H          7.6549279465       -0.1300388569       -0.0313844465
 H          8.7630592101       -2.3345788818       -0.1950780215
 H          7.4086114610       -4.3930228296       -0.3272370507
 H          4.9386945844       -4.2532016382       -0.2991848165
 H         -1.5106343982       -0.3190190108       -2.3809594828
 H         -2.6222856422        0.0971940578       -4.5192137859
 H         -5.0946230344        0.2625975855       -4.6125248084
 H         -6.4046367421       -0.0060004817       -2.5730968332
