45
 energy: -74.244442844588 gnorm: 0.000051095028 xtb: 6.7.1 (edcfbbe)
O           -3.95222887634267        2.43894798475259       -0.14085953702067
S           -3.59443215402337        1.20005089530134       -0.78316396465789
O           -3.99968333700233        0.98328765923521       -2.14858836486471
C           -4.19536798374347       -0.16286655186088        0.21671271092272
C           -4.35450071471799        0.01426366841194        1.58037005945732
C           -4.73662077907669       -1.06150524995421        2.36112908809797
C           -4.94480991737211       -2.30312719638206        1.77686578430473
C           -4.77991812950248       -2.46956846531060        0.40885059506289
C           -4.39791421336699       -1.39721766929651       -0.37655362394022
C           -1.85730312997324        0.93503033648698       -0.63279558583832
C           -1.15708611447715        1.48112073784123        0.46285799617391
C            0.16860923365781        1.22363158640209        0.62928097401484
C            0.84824086399256        0.34563314076831       -0.27040550573963
N            2.18050955569122        0.06754038789709       -0.10043510691980
C            2.77057867183856       -1.17784808816026       -0.23823416228184
C            2.18162539386267       -2.40895220777991       -0.47748678334811
C            3.00540428012884       -3.52572504147810       -0.54487480099916
C            4.38483379394683       -3.41083869287100       -0.36213002544882
C            4.97857765658723       -2.19162930637330       -0.08050441554453
C            4.17385270698807       -1.05996282651139        0.00296232972896
C            4.42227729070199        0.31020043268688        0.31320328506613
C            5.56722882671355        1.03467801589565        0.62822289045923
C            5.45729985881483        2.40222948373981        0.82059891446567
C            4.23413702811601        3.06090619252146        0.68782221416069
C            3.07428019910438        2.35810161290482        0.38460308347466
C            3.16581855834397        0.98434070099492        0.23112603103074
C            0.11325315445747       -0.23732216012957       -1.34940164690040
C           -1.20404404408450        0.05608957319664       -1.52221125628292
H           -4.19985518451101        0.99551634774125        2.00040104491587
H           -4.87535363359680       -0.93441574199487        3.42445095803147
H           -5.24170290176034       -3.14200523943890        2.38851901836538
H           -4.95264169315146       -3.43505948312021       -0.04295348943030
H           -4.27639214447080       -1.48824937921328       -1.44431211213906
H           -1.69980085820230        2.11898812394012        1.14176238076904
H            0.70512002957052        1.60343941200441        1.48517739930802
H            1.11265568947084       -2.50944429701810       -0.58371602317126
H            2.57097359940772       -4.49508374801342       -0.72983767798191
H            4.99732882152628       -4.29790828003963       -0.42481651621403
H            6.04312274169632       -2.11825608360550        0.07897084423797
H            6.52199543726072        0.53907091532033        0.71134924824242
H            6.33913559212361        2.97714380640425        1.06100236563518
H            4.18832222892523        4.13102626815516        0.81132226171214
H            2.13906393604115        2.87834696660598        0.24911252047774
H            0.64793947797698       -0.83488214800496       -2.07183527262554
H           -1.76739941340153       -0.32456575662234       -2.35872100593912
