45
 energy: -74.353612284443 gnorm: 0.000095570682 xtb: 6.7.1 (edcfbbe)
O           -3.88344837578462        1.59104911432906        1.82338227765790
S           -3.53565404173060        1.39794969161564        0.44059027947979
O           -3.83013351298521        2.44900693932270       -0.49689653378471
C           -4.29269420880390       -0.12788212570583       -0.13358513234291
C           -4.84273305342017       -1.00394893404445        0.78076521328159
C           -5.38872422443182       -2.19506376927838        0.33090396552243
C           -5.37220279226398       -2.49319324074264       -1.02256939884139
C           -4.81734985229701       -1.60489416836587       -1.93143502997562
C           -4.27106442125256       -0.41336708270686       -1.48497011323942
C           -1.78501072013231        1.01383680395708        0.33145502586805
C           -1.22329462536552        0.17532567540454        1.27623819868041
C            0.11618496794569       -0.15006840591990        1.18828650975830
C            0.88977279587912        0.35859274756865        0.14308149805426
N            2.24391928159791        0.03434969750040        0.05268224415716
C            2.78292132123784       -1.23681842871205        0.14897728892281
C            2.14448035728850       -2.46064211185548        0.28535052324519
C            2.92974544735784       -3.59770574351700        0.32205382919619
C            4.31656749467239       -3.52813591572936        0.21596432522335
C            4.95524540435417       -2.31514978112004        0.05181942886051
C            4.18709391448762       -1.15926849268081        0.01210786147740
C            4.50600123916972        0.23051179624438       -0.16557050081279
C            5.70026512228790        0.92067898666786       -0.32542818424248
C            5.65813208246118        2.29537557057798       -0.44515242259749
C            4.44750324185644        2.98162578399455       -0.38913519759575
C            3.24636281284315        2.31610655008827       -0.23111275954328
C            3.28042464942682        0.93258433895432       -0.13890027366811
C            0.30647852243882        1.19814934500827       -0.80693906338984
C           -1.03225778596501        1.52599522338029       -0.70772201158197
H           -4.84820026024199       -0.73015323160454        1.82424677104652
H           -5.82781738135666       -2.88749141234125        1.03313054618391
H           -5.79915521943023       -3.42121795440698       -1.37276911323836
H           -4.81348206312181       -1.84013711984167       -2.98499931202756
H           -3.84483394532236        0.30542795897162       -2.16704440875016
H           -1.83627191880279       -0.18982325520364        2.08508758345913
H            0.57824914825171       -0.77728688988834        1.93513820651858
H            1.06880457977343       -2.52946788030870        0.34760553116104
H            2.45589049317949       -4.56190356045818        0.43178337800470
H            4.89508486389599       -4.43898594324591        0.25269112439473
H            6.02850477301211       -2.26147677112386       -0.04932992277682
H            6.63944328410436        0.38919223073392       -0.34859844270152
H            6.57466631970632        2.85158380459510       -0.57260757272822
H            4.44649405730502        4.05864478079589       -0.46658150017030
H            2.31703176356012        2.86127355033174       -0.16688661012441
H            0.90384565117282        1.57465083806610       -1.62311102503080
H           -1.50851157453114        2.18178008897468       -1.41960983714152
