45
 energy: -74.244417138234 gnorm: 0.000065450353 xtb: 6.7.1 (edcfbbe)
O           -3.95893070428867        1.20225958116996        2.18302466049843
S           -3.56453136317461        1.32310044313248        0.80258377989453
O           -3.89702181660313        2.52931449650549        0.08850935604657
C           -4.21427309301923       -0.08333173365321       -0.10199364373053
C           -4.45877294723474       -1.26613076989696        0.57468235969931
C           -4.88016782307940       -2.37585242785211       -0.13506658161550
C           -5.04283601590912       -2.29793005324674       -1.51112932018789
C           -4.79258874752528       -1.10738472966920       -2.17937014040185
C           -4.37055356030431        0.00524631495588       -1.47454590796127
C           -1.83650535139049        1.00424803693798        0.64955879721454
C           -1.20573042315741        0.12705343807306        1.55689643092124
C            0.10138947168745       -0.20965213072443        1.38567738114702
C            0.84903989794467        0.32814323940016        0.29234130163240
N            2.17179202209561        0.00621686385073        0.12444975568967
C            2.72293789359269       -1.25423211040120        0.28386836344645
C            2.09572990115886       -2.46174357670341        0.54476974687022
C            2.88412495685668       -3.60262137369104        0.63082690496399
C            4.26632397673951       -3.53403226426289        0.44579408107412
C            4.89789787814252       -2.33908544987827        0.14301207571313
C            4.12894301993763       -1.18434044431935        0.03982032332527
C            4.41939888405094        0.17173586309284       -0.29478280126144
C            5.58588394764482        0.85491867015130       -0.62292789000604
C            5.51795447285231        2.22169670563749       -0.83920709584053
C            4.31582751810122        2.92008914264418       -0.71806419099850
C            3.13493586148307        2.25876469269444       -0.40257455533727
C            3.18444285200084        0.88587477460300       -0.22436088405306
C            0.19259049960759        1.20644549832431       -0.62402054195093
C           -1.12488957674639        1.50510770359858       -0.45995466642728
H           -4.33850458390365       -1.28750414279257        1.64623444331114
H           -5.08546112514187       -3.30131769896169        0.38215152022511
H           -5.37080604211059       -3.16576659810258       -2.06365277702230
H           -4.92971659759051       -1.04888080670857       -3.24886284709973
H           -4.18184568149790        0.94902349046731       -1.96126735496481
H           -1.77597325654889       -0.21817486136283        2.40398086337635
H            0.62082242246820       -0.80820461082396        2.11837325399386
H            1.02421671150592       -2.52638391143064        0.65349711336556
H            2.41967542916578       -4.55459323119522        0.83234212177764
H            4.85079431769005       -4.43863025540833        0.52373853303269
H            5.96412999907252       -2.30195437464007       -0.01770936207476
H            6.52486127073231        0.32875181244558       -0.69761577715828
H            6.41697349714386        2.76479442035419       -1.08977792526437
H            4.30303289518247        3.98877091116523       -0.86038449448480
H            2.21599711311783        2.80959093601592       -0.27683532092124
H            0.73752226703440        1.55295634893030       -1.48870048309696
H           -1.65193539897392        2.14316840899871       -1.15097182124775
