  45
        -74.35360316
 O         -3.8818212411        1.5886604177        1.8130773286
 S         -3.5334107572        1.3892233823        0.4314183509
 O         -3.8279809275        2.4368289610       -0.5098857808
 C         -4.2946902137       -0.1369026703       -0.1366705042
 C         -4.8477545913       -1.0073963513        0.7813746320
 C         -5.4063693000       -2.1941116530        0.3355267468
 C         -5.3988133930       -2.4940979893       -1.0175226380
 C         -4.8397004716       -1.6121335821       -1.9299982618
 C         -4.2814505066       -0.4245147102       -1.4877305745
 C         -1.7819305669        1.0079715167        0.3254071541
 C         -1.2192820339        0.1728961047        1.2727328242
 C          0.1216209132       -0.1476023469        1.1881884865
 C          0.8958286660        0.3626605226        0.1441757175
 N          2.2504570116        0.0396636750        0.0557489351
 C          2.7881951864       -1.2321545075        0.1503523636
 C          2.1482453615       -2.4553339315        0.2852244330
 C          2.9321058805       -3.5933553768        0.3203693004
 C          4.3189930517       -3.5252285572        0.2142008770
 C          4.9590816043       -2.3128671389        0.0512144436
 C          4.1923785463       -1.1559611468        0.0133516001
 C          4.5126731048        0.2336942872       -0.1627625443
 C          5.7076513009        0.9227482947       -0.3221657738
 C          5.6669444392        2.2975970262       -0.4407022925
 C          4.4570048173        2.9850233949       -0.3842858682
 C          3.2551598868        2.3206608069       -0.2264264615
 C          3.2877807862        0.9370321590       -0.1351624026
 C          0.3121374736        1.2003427833       -0.8072450643
 C         -1.0281500372        1.5230914555       -0.7116262681
 H         -4.8466403690       -0.7324070277        1.8246091921
 H         -5.8486414912       -2.8816504547        1.0406109674
 H         -5.8364083333       -3.4183577464       -1.3646234851
 H         -4.8433883637       -1.8484434615       -2.9833105025
 H         -3.8524005588        0.2897420315       -2.1728110581
 H         -1.8326456753       -0.1935195018        2.0807609363
 H          0.5844773022       -0.7717122633        1.9371510354
 H          1.0725247055       -2.5227519927        0.3480261065
 H          2.4570240410       -4.5571850829        0.4282808923
 H          4.8962558004       -4.4370305829        0.2478103823
 H          6.0322738218       -2.2605555816       -0.0511104078
 H          6.6461958464        0.3902082338       -0.3467687996
 H          6.5841022881        2.8529417310       -0.5676263626
 H          4.4573390582        4.0621893260       -0.4598326173
 H          2.3263472600        2.8666539585       -0.1615853340
 H          0.9103430633        1.5791230191       -1.6217864030
 H         -1.5053100312        2.1760149292       -1.4255555971
