  59
        -85.23647960
 Br         4.6968691376       -1.6306105101        1.2633821323
 C          5.0311007258       -2.0973598035       -0.6020822802
 C          3.7347816258       -2.4233813285       -1.3208077013
 C          3.0730693002       -3.6895616910       -0.7788389953
 C          1.6574894830       -3.9253401245       -1.3111586125
 C          0.6739422365       -2.7790359100       -1.0604356088
 C          0.5275036873       -2.4162429063        0.4175162263
 C         -0.2444164395       -1.0979564725        0.6422951484
 C         -0.3195948930       -0.8303304024        2.1594095038
 C         -1.2556670718        0.3035584392        2.5833658512
 C         -0.7426501961        1.6926726984        2.2126936917
 C         -1.6227600712        2.8307170998        2.7299466757
 C         -3.0707104112        2.8037516038        2.2325385315
 C         -3.2231832302        2.6221613849        0.7337132449
 Br        -2.2211555817        3.9499774582       -0.2886011205
 C          0.4287649543        0.0112090701       -0.1294444885
 C          1.7114654549        0.4934067998        0.0134944556
 C          2.1278628561        1.4866879311       -0.8630511572
 Br         3.9230509647        2.1219178209       -0.7342500783
 C          1.2967937935        2.0088310667       -1.8419499268
 C          0.0071916779        1.5231131328       -1.9795695354
 C         -0.4182180564        0.5134366163       -1.1315946237
 C         -1.6841640024       -0.1954651086       -1.0527247370
 C         -2.8457030921       -0.0606418527       -1.7975373832
 C         -3.9290368448       -0.8692783229       -1.4974651344
 C         -3.8329237507       -1.7952970345       -0.4699376842
 Br        -5.3435554550       -2.8956095058       -0.0716546923
 C         -2.6763102705       -1.9480277434        0.2832154777
 C         -1.6018418125       -1.1385317276       -0.0145282147
 H          5.5271894909       -1.2304392112       -1.0370055737
 H          5.7134475870       -2.9463893310       -0.5818164866
 H          3.0585516964       -1.5727874205       -1.2220992609
 H          3.9589881420       -2.5485763070       -2.3836226790
 H          3.0408297168       -3.6418199437        0.3108392067
 H          3.6883947067       -4.5535691219       -1.0429817012
 H          1.2699100710       -4.8348611527       -0.8466418837
 H          1.7059490177       -4.1007203781       -2.3885240504
 H         -0.3014522836       -3.0717093040       -1.4569925212
 H          0.9918905072       -1.9011047493       -1.6253877800
 H          0.0154428091       -3.2270446186        0.9389654633
 H          1.5089634455       -2.2923349584        0.8738659767
 H         -0.6604553841       -1.7493197387        2.6416032158
 H          0.6886817419       -0.6226866865        2.5225124074
 H         -2.2409557171        0.1335084053        2.1441163378
 H         -1.3694900314        0.2559109391        3.6696954580
 H         -0.6450775048        1.7810913078        1.1319013508
 H          0.2575924482        1.8206955720        2.6332552986
 H         -1.1646045730        3.7751903931        2.4260087117
 H         -1.6406018257        2.8117378080        3.8219431893
 H         -3.5552816775        3.7357471744        2.5352738628
 H         -3.6134406187        1.9823496536        2.7084130547
 H         -2.8538706215        1.6551240908        0.3982648559
 H         -4.2632759045        2.7367463097        0.4296404302
 H          2.3762712312        0.1217358623        0.7778355951
 H          1.6556415079        2.7899115614       -2.4934951029
 H         -0.6453502303        1.9293679579       -2.7360109347
 H         -2.9126073435        0.6641233539       -2.5943996072
 H         -4.8465344580       -0.7843047339       -2.0590401591
 H         -2.6326040818       -2.6776741329        1.0770315831
