59
 energy: -85.236639516004 gnorm: 0.000044294107 xtb: 6.7.1 (edcfbbe)
Br           4.79201810176299       -1.69097905605733        1.16048272712603
C            5.03420018487972       -2.19554841511976       -0.70945250775840
C            3.70094291222222       -2.49876265964164       -1.36800558291019
C            3.02860910420959       -3.73639685980363       -0.77503737121475
C            1.59577581067390       -3.95770352731546       -1.26568200073405
C            0.64132919012633       -2.78554225869115       -1.02202596049226
C            0.52624149673958       -2.39230834083819        0.45107201195986
C           -0.19438980815080       -1.04251762744452        0.66408287504594
C           -0.23130355466697       -0.74594085649125        2.17782681653767
C           -1.18179623146515        0.37115046116975        2.61362098880889
C           -0.78703436030610        1.74958767449040        2.09124603629183
C           -1.66341076285758        2.88526441311698        2.62002018538684
C           -3.15689859292833        2.74972370922884        2.30894834051625
C           -3.47955791796702        2.40899132278349        0.86578694565912
Br          -2.65926867824422        3.64261230158615       -0.40354716776681
C            0.51170760623914        0.02508773128087       -0.13734535247000
C            1.81017198161760        0.46701178075264       -0.01157777481235
C            2.25691495570969        1.41987607284678       -0.91787758247582
Br           4.07461366412857        1.99434709430000       -0.81618245622954
C            1.43940886177681        1.94430846522839       -1.90671389232636
C            0.13205476292882        1.50237292830628       -2.02447954945681
C           -0.32259486367060        0.53047299222180       -1.14858893356256
C           -1.61300249583118       -0.12847895417131       -1.04269982497615
C           -2.77479632425589        0.03410485412404       -1.78113846893418
C           -3.88866492311257       -0.71832571307854       -1.44680867909404
C           -3.82155226388618       -1.61703512721768       -0.39284415597568
Br          -5.37701937904113       -2.63265241363746        0.05882003662022
C           -2.66388218907109       -1.79894641503270        0.35256327040801
C           -1.55908573937998       -1.04462736682672        0.02145023281849
H            5.53255727220226       -1.34847832677067       -1.17908657600779
H            5.69534455813013       -3.06151164303243       -0.70383359616742
H            3.05233225315079       -1.62835679832457       -1.25712862536550
H            3.87749775656983       -2.64920199404341       -2.43669447669999
H            3.02596154621269       -3.65825707382206        0.31368377059848
H            3.61983650505265       -4.61973212121083       -1.03118236388943
H            1.20212365998091       -4.84685092257340       -0.76803018087297
H            1.61423737562709       -4.16213493801047       -2.33890014145135
H           -0.34647596467782       -3.06403811614206       -1.39764761076015
H            0.96953254718571       -1.92609349523517       -1.60890446530559
H           -0.00828509821044       -3.17542157946876        0.99197881018894
H            1.51717229098589       -2.29676800436305        0.89375436497720
H           -0.53157726027745       -1.66171782613768        2.69231497168322
H            0.78268947748537       -0.50475004681207        2.50223414635391
H           -2.19465129056845        0.12097875162786        2.29154335233883
H           -1.18441959625720        0.39919236538130        3.70655385614420
H           -0.81446855092560        1.75854487525654        1.00303040752227
H            0.24548924100481        1.95427626521252        2.38432014091892
H           -1.29787634001732        3.81960923456099        2.18679488709782
H           -1.55073735222161        2.96069280897833        3.70382768830328
H           -3.64945837266666        3.68772650336325        2.57833010702732
H           -3.59576469987132        1.96020797424608        2.92526193305829
H           -3.11579076683142        1.42238490068413        0.58691037176449
H           -4.55215708615752        2.46378283138163        0.68186808201952
H            2.46689585497409        0.09195470425142        0.75830681829249
H            1.82364228297268        2.69250070548250       -2.58223491410562
H           -0.51223445458146        1.91276360180175       -2.78559092885071
H           -2.82036631109050        0.74150301444260       -2.59455198295660
H           -4.80845311497682       -0.60797229720041       -2.00017725580640
H           -2.64228663808658       -2.50727714330939        1.16647762380628
