59
 energy: -85.138615807763 gnorm: 0.000023512498 xtb: 6.7.1 (edcfbbe)
Br           4.84173113999031       -1.63412986512577        1.12614152615320
C            5.05392700506108       -2.15239893058932       -0.74386370604050
C            3.71075862808624       -2.46156010445715       -1.37860974227534
C            3.05537793334906       -3.70233578367620       -0.77391119625612
C            1.62353271635037       -3.94103684880679       -1.25865729376682
C            0.65494128626189       -2.78525557083113       -0.99754712531911
C            0.52379053301183       -2.42118989368040        0.48125885986087
C           -0.22117753806171       -1.08535648307785        0.69724367061711
C           -0.28548725846188       -0.79986575809976        2.21310615315828
C           -1.22727397896250        0.33354629336449        2.62308344064495
C           -0.76004630438790        1.71169341070459        2.16411385156070
C           -1.65030559097994        2.85669326504188        2.64779713999855
C           -3.11587718477581        2.76172298086385        2.21521426610836
C           -3.32306162403946        2.49084667005459        0.73672055318590
Br          -2.41309254437114        3.79068531427872       -0.39782775912412
C            0.47591190165737        0.00561202878122       -0.08052918268187
C            1.74924002887668        0.45692085977753        0.04169805888559
C            2.19385207936046        1.45226391995623       -0.85655425370465
Br           3.99513630000611        2.02190126216904       -0.77162256341412
C            1.34308346856926        2.00339707712541       -1.84394108396306
C            0.06376190241828        1.56400662791168       -1.97761448082277
C           -0.41060755698151        0.52695169513527       -1.11016701510460
C           -1.62488525078355       -0.12877219541171       -1.03560051988691
C           -2.82810278309952        0.01120081260145       -1.80233842249029
C           -3.90427033539347       -0.76155842589238       -1.49377078163415
C           -3.83724744610964       -1.69518795501956       -0.43491590687176
Br          -5.36208894641123       -2.74634273528841       -0.03581637816568
C           -2.66324184130438       -1.86671707838324        0.33451106039978
C           -1.58173858157819       -1.10231371445472        0.04224436202009
H            5.54444014575925       -1.30878057439592       -1.22788040663552
H            5.71581284263182       -3.01787561319795       -0.74287102296644
H            3.05914858081571       -1.59490209515870       -1.25586143173575
H            3.86893092086225       -2.61180513353567       -2.45027647390590
H            3.05594392186493       -3.61608334029970        0.31415132440582
H            3.65558736875023       -4.58065264921922       -1.02686478066266
H            1.24511419085262       -4.83998184434359       -0.76674178664151
H            1.63985781748665       -4.13588292323390       -2.33379722517200
H           -0.32804723943515       -3.06482784725920       -1.38504455274052
H            0.97650913755158       -1.90841309681976       -1.56256930469404
H           -0.00331615200297       -3.22019116346849        1.00588364551395
H            1.50966473543065       -2.31579948754463        0.93304497116936
H           -0.61614984273813       -1.71295957227362        2.71333359405621
H            0.72424028481375       -0.57824012017214        2.56369518249134
H           -2.22382429383853        0.12217191678187        2.23008322486788
H           -1.29918041358323        0.33517880772382        3.71399651903277
H           -0.70013830145253        1.74161816247353        1.07642034435015
H            0.25086610264238        1.88474176453811        2.54098430473805
H           -1.23188934161517        3.79242603625971        2.26884736409619
H           -1.62303715637942        2.90392160936867        3.73880781740943
H           -3.61541927128857        3.69586270364640        2.48555430446493
H           -3.61387469016826        1.95438578878952        2.75908766708167
H           -2.93172703050478        1.51998858832135        0.43849457873881
H           -4.37813150598711        2.55162246398206        0.47117136247172
H            2.42247196698341        0.08027470092823        0.79652726462063
H            1.72884554295350        2.77952721710717       -2.48675807391329
H           -0.59507442393218        1.98786458063430       -2.71749694843943
H           -2.86772013515657        0.72981974161584       -2.60543062835008
H           -4.82480465476647       -0.67572300625574       -2.05110259197817
H           -2.65169530132650       -2.59397092734916        1.13196184512611
