59
 energy: -85.225455867901 gnorm: 0.000110423261 xtb: 6.7.1 (edcfbbe)
Br          -6.51040348435900       -0.38560880463432        2.27072929721435
C           -6.84882843756034       -1.17628405773228        0.51065181252160
C           -5.84083326855655       -2.25109963317930        0.13425383017939
C           -4.55707274325386       -1.71875655070351       -0.50458591957909
C           -3.69597283701189       -0.87235339522118        0.43106084793682
C           -2.33843572595521       -0.55879390979357       -0.19555626450921
C           -1.50955674179746        0.32942062522753        0.72720855138189
C           -0.06788992262492        0.63802400319934        0.25774423453939
C            0.80540647494115       -0.62438515008365        0.23607833869657
C            2.26285827143699       -0.32069475067361       -0.10593166491832
C            3.09861872861905       -1.59598488239037       -0.18365599211860
C            4.55881166762855       -1.28435996641745       -0.50487936482372
C            5.40560589686383       -2.52709154799521       -0.77916253304829
C            5.52177254507376       -3.47529904329902        0.40039739131670
Br           6.35976717798326       -2.61651779086934        1.94635664254896
C           -0.05186839182450        1.36610994543480       -1.06633598723525
C           -0.34255799052176        0.88348555603212       -2.32451006829846
C           -0.26455754462749        1.76429148113523       -3.39507551360369
Br          -0.67231060737549        1.11558059725953       -5.14435861918934
C            0.10166160890628        3.09111178152220       -3.23779846633595
C            0.42369848449611        3.56531652211345       -1.97749363312468
C            0.35281659668363        2.70076753531452       -0.89706571516011
C            0.68218616758196        2.90802645806399        0.50174730656299
C            1.14696652039655        4.03062890144859        1.16806538637499
C            1.41299992558229        3.94047701150399        2.52351033947782
C            1.21083806414596        2.73937601383431        3.18597135452902
Br           1.58831825467612        2.63882741711176        5.05239990615319
C            0.74085401790284        1.60627436989062        2.53560894287754
C            0.48130700246145        1.69979945271785        1.18584942193199
H           -7.85428090918142       -1.58910229978288        0.58107601277869
H           -6.84298195872524       -0.35087523576608       -0.20010168121235
H           -5.59335448960051       -2.84880935701663        1.01448601619778
H           -6.32929269489255       -2.91442536927046       -0.58578945105865
H           -4.81307252188074       -1.13349110098930       -1.39181905857238
H           -3.97102903858652       -2.57858280946056       -0.83923773736048
H           -3.54686460877531       -1.40686301841365        1.37189651340693
H           -4.19892407349175        0.06785267402740        0.65923539609290
H           -2.50002745286588       -0.05137038855029       -1.14793985579063
H           -1.81347935008104       -1.49553715835822       -0.39089019230589
H           -2.03264387956681        1.28071572900230        0.85650529027719
H           -1.44506197236598       -0.14342695624466        1.70958402082082
H            0.75467672738261       -1.10657585806018        1.21441063439010
H            0.40776647515711       -1.32254076413132       -0.50221068550652
H            2.30972558184304        0.20174879381201       -1.06464775398487
H            2.68649297319888        0.34243427154771        0.65144569434145
H            2.68770845609839       -2.25201414163296       -0.95610968035222
H            3.02839122575507       -2.11729809664049        0.77307039671662
H            4.99753984041394       -0.72148339898090        0.32185386965595
H            4.59643951854257       -0.64647632390001       -1.39105133630631
H            6.40686319730213       -2.21099626348255       -1.08227512610855
H            4.96813103957457       -3.09115888641248       -1.60846558296760
H            4.54983114174772       -3.82725698817532        0.74053030364782
H            6.15301332014566       -4.32926651627382        0.15739068265183
H           -0.61010384320782       -0.14766244304993       -2.49316968394056
H            0.14666656859261        3.74280581735182       -4.09672233732289
H            0.73041756599370        4.59162804009207       -1.84778544284975
H            1.30226504529936        4.96246534333034        0.64661875327682
H            1.77754637311749        4.79804402093913        3.06753095445990
H            0.59344003314345        0.68722949571375        3.08135920462758
