59
 energy: -85.138615985799 gnorm: 0.000197107112 xtb: 6.7.1 (edcfbbe)
Br           4.85725139911557       -1.51121232761966        1.17273374586742
C            5.10521437080469       -1.98621399775104       -0.70441026166695
C            3.77889002477283       -2.32603399328131       -1.35860720448258
C            3.15726929683655       -3.59801442704879       -0.78382976012351
C            1.73852878660902       -3.87290193794165       -1.28773884219894
C            0.73141195413261       -2.75240757932041       -1.01837146377554
C            0.57559554950550       -2.41532815518665        0.46445897827133
C           -0.20994415027841       -1.10532560616752        0.69339759759673
C           -0.29662506074968       -0.84501270901076        2.21265805892988
C           -1.26584674226148        0.26285518071772        2.62863959322968
C           -0.81399005782357        1.65847244369728        2.20864313945812
C           -1.73037564577721        2.77764745165838        2.70363396607050
C           -3.18628581297204        2.67094020670368        2.24234382966760
C           -3.36259766206018        2.43714221742320        0.75351958110442
Br          -2.45375731639524        3.78187792436996       -0.32874959689011
C            0.46088475434171        0.01777256906755       -0.06127820753167
C            1.72011306601557        0.50282014756029        0.07718879729771
C            2.14130174394126        1.52679812528206       -0.79986069281516
Br           3.92480660119632        2.14618481621360       -0.69241680118766
C            1.28112756874165        2.07117771759104       -1.78270490426823
C            0.01568507889984        1.59801036989341       -1.93249442819692
C           -0.43429774039083        0.53269612804475       -1.08657204962382
C           -1.63033765891046       -0.15759675755755       -1.03067406226748
C           -2.83349054848683       -0.03656243392574       -1.80085461444188
C           -3.88768978195733       -0.84742621562308       -1.51520567067178
C           -3.79818421550456       -1.80162533589795       -0.47660934672724
Br          -5.29198019322368       -2.90786533858316       -0.11094331741964
C           -2.62419039840556       -1.95355721942741        0.29696421075991
C           -1.56478147455963       -1.15073700946139        0.02791585059496
H            5.57297250532486       -1.11826602563002       -1.16751684042307
H            5.79451134627969       -2.82997865791849       -0.71268238790672
H            3.09873588091654       -1.48295300739535       -1.22701905574741
H            3.95257283512866       -2.45115042972959       -2.43108090721887
H            3.14443907543934       -3.53215640598584        0.30558837528581
H            3.78754806135008       -4.45206125380230       -1.04659205456086
H            1.38350571069296       -4.79131865370884       -0.81472093277020
H            1.77189764479257       -4.04917605973833       -2.36568166061569
H           -0.23869123040791       -3.05684080350491       -1.41937266833232
H            1.03015819851315       -1.85729075046031       -1.56704957514490
H            0.06726451547171       -3.23733681975874        0.97174533726418
H            1.55365983808767       -2.28837725088530        0.92751732550393
H           -0.61454078212479       -1.77248099827382        2.69434209965584
H            0.70429389703959       -0.60874264006895        2.57859249932057
H           -2.25094069041437        0.04307675709955        2.21192463242846
H           -1.35842708292369        0.23970154619191        3.71774246559658
H           -0.73735439178459        1.71428989686358        1.12302473173163
H            0.18784004875436        1.83887143831086        2.60579760567627
H           -1.32000240136641        3.72866492072783        2.35516155379621
H           -1.72312266715094        2.79848161393039        3.79577218685598
H           -3.70586285749797        3.58932829721957        2.52843816067946
H           -3.68037928780117        1.84124713477045        2.75522460477596
H           -2.95023939980568        1.48102692340741        0.43628358639730
H           -4.41362963437401        2.48841101013707        0.47054704678613
H            2.39878603945906        0.13268157737813        0.83031922480961
H            1.64826763812189        2.86932097735935       -2.40923123864246
H           -0.64998897555497        2.01560337335618       -2.66982894091293
H           -2.89036719620679        0.69759933486911       -2.58876226758602
H           -4.80755493834597       -0.77682167020517       -2.07578731079004
H           -2.59550888117502       -2.69670881413189        1.07916174971749
