  74
       -109.39420871
 C          5.7358932560        0.8703964201       -1.8524983814
 C          6.0104902985        0.9312234266       -0.3334491467
 C          7.3880264210        1.5595025228       -0.1239431212
 C          4.8901002587        1.7308349996        0.3038131784
 C          5.0265241891        3.0470731812        0.7132734627
 C          3.9438141871        3.7662519901        1.1916782868
 C          2.6952007768        3.1725905309        1.2535029226
 C          2.5369894880        1.8564612169        0.8695730888
 C          3.6296063065        1.1218547248        0.4159210929
 N          3.5177121891       -0.2382206032        0.1071968112
 C          2.3598855256       -0.8275643739       -0.3976092403
 C          2.4646532394       -1.8090003132       -1.3758990367
 C          1.3016986876       -2.3492587447       -1.9130125094
 C          0.0473904704       -1.8842512589       -1.4998338176
 C         -1.1947215830       -2.3521339062       -1.9564170459
 C         -2.3719112274       -1.8094361997       -1.4563271066
 C         -2.2940048232       -0.8174548760       -0.4925132255
 N         -3.4818218401       -0.2225853967       -0.0188064583
 C         -3.7243411801        1.1287799756       -0.2254860620
 C         -2.6618890417        1.9908647762       -0.5184175629
 C         -2.8804758617        3.3305105717       -0.7513570934
 C         -4.1699503911        3.8341469922       -0.7174133546
 C         -5.2218804358        2.9864778743       -0.4243422815
 C         -5.0292951598        1.6368063260       -0.1601727419
 C         -6.2257858954        0.7569150364        0.1441073194
 C         -7.0820398013        0.6410128672       -1.1311831527
 C         -7.0477360192        1.3956155747        1.2786905454
 C         -5.8020418209       -0.6337380697        0.5684454806
 C         -6.7472166714       -1.5374005366        1.0358273843
 C         -6.4003897931       -2.8076166662        1.4566430758
 C         -5.0690565758       -3.1925631391        1.4367423887
 C         -4.1146348733       -2.3241505649        0.9581251816
 C         -4.4678712691       -1.0524293239        0.4881384401
 N         -1.1160501078       -0.3762117500       -0.0261773391
 C          0.0298327353       -0.8525062465       -0.4886735797
 N          1.1635783227       -0.3975126145        0.0240472341
 C          4.6400466765       -1.0314166822        0.3448340597
 C          4.4873663681       -2.3448759007        0.7903472500
 C          5.5941968105       -3.1105114527        1.0898828158
 C          6.8626202751       -2.5672390884        0.9674407535
 C          7.0172166524       -1.2596422084        0.5385152142
 C          5.9206897763       -0.4775036862        0.2137501391
 H          5.7580614998        1.8733225197       -2.2737837090
 H          4.7612255953        0.4351991344       -2.0584374380
 H          6.4952515773        0.2654757243       -2.3441467574
 H          7.6287990035        1.6265794511        0.9346420669
 H          8.1505427442        0.9682684974       -0.6246583467
 H          7.4181572830        2.5548352286       -0.5597043741
 H          5.9852303860        3.5363840036        0.6554000283
 H          4.0761576228        4.7930178338        1.4986900988
 H          1.8419391458        3.7314248700        1.6073187902
 H          1.5714017053        1.3770250045        0.9172675352
 H          3.4359124344       -2.1142531094       -1.7330993064
 H          1.3580971714       -3.1144990213       -2.6717283544
 H         -1.2251647750       -3.1198386324       -2.7136123037
 H         -3.3358752732       -2.1236807826       -1.8257802220
 H         -1.6593772795        1.5968495680       -0.5434727122
 H         -2.0451157552        3.9786249546       -0.9691288028
 H         -4.3577095970        4.8776786524       -0.9203301252
 H         -6.2212420156        3.3939091200       -0.4127046868
 H         -7.4210230032        1.6214225588       -1.4556647514
 H         -6.4964649022        0.1971423334       -1.9342387526
 H         -7.9517952454        0.0138578398       -0.9524260541
 H         -6.4384744857        1.4732093686        2.1768578768
 H         -7.9260973842        0.8003490983        1.5087362419
 H         -7.3855916543        2.3904454608        1.0052508816
 H         -7.7872851292       -1.2511485717        1.0683648251
 H         -7.1613784875       -3.4870554878        1.8088535286
 H         -4.7767180752       -4.1688412727        1.7926497550
 H         -3.0759770060       -2.6158380323        0.9489829365
 H          3.4935622343       -2.7488162144        0.9112403021
 H          5.4672519028       -4.1264610684        1.4322948427
 H          7.7327981567       -3.1596515849        1.2064924525
 H          8.0141471524       -0.8588580150        0.4529198955
