  77
  -120.993386541200       0.185879087314294      !
 C          4.3465617215        3.3127298813        0.6047504176
 C          4.8726703784        2.1193244250        1.4091292247
 C          4.3332686432        2.1580006494        2.8418610257
 C          6.3829043661        2.0778747422        1.3892643735
 C          7.2807093983        2.9961869553        1.8871722901
 C          8.6405621642        2.7470594797        1.7494537219
 C          9.0935175961        1.5954158197        1.1205405405
 C          8.2002085345        0.6670030470        0.6163502215
 C          6.8401136393        0.9109470339        0.7528404953
 C          5.6958844032        0.1314926943        0.3339749453
 C          5.6400984786       -1.0923004033       -0.3190545561
 C          4.3862050888       -1.6053794493       -0.5982936171
 C          3.9385705399       -2.8158230183       -1.2357701604
 C          4.5933236504       -3.8927822740       -1.8114274968
 C          3.8339624590       -4.9068308703       -2.3709377099
 C          2.4437373392       -4.8475772896       -2.3707792428
 C          1.7680199875       -3.7821235323       -1.8020574981
 C          2.5251120988       -2.7750492130       -1.2227383031
 N          2.1088858934       -1.6085694792       -0.6102675008
 C          0.7733682211       -1.2245599473       -0.4451502214
 C         -0.1376470832       -2.0824416889        0.1827343210
 C         -1.4515752146       -1.7297541688        0.3332367861
 C         -1.9303610367       -0.4842185443       -0.1500261562
 C         -3.2926045921       -0.1208714725       -0.0141521920
 N         -3.7364518772        1.0532760907       -0.5249974489
 C         -5.0009952695        1.3577856818       -0.3955885293
 C         -5.4900632352        2.6140900396       -0.9519228586
 C         -4.6205303265        3.4762755808       -1.6205398043
 C         -5.0926768972        4.6587873825       -2.1529442805
 C         -6.4324465690        4.9951155353       -2.0261582101
 C         -7.3008069397        4.1428969051       -1.3615074583
 C         -6.8358682513        2.9583892009       -0.8257917938
 N         -5.8862002821        0.5539622346        0.2230105308
 C         -5.4105509216       -0.6037331896        0.7157313137
 C         -6.3468527648       -1.4980562306        1.3877776051
 C         -7.6889009858       -1.1403583824        1.5141666238
 C         -8.5750934021       -1.9883744910        2.1482057921
 C         -8.1350919321       -3.1982460224        2.6616880531
 C         -6.8013558483       -3.5592598353        2.5388618385
 C         -5.9096238355       -2.7167467839        1.9065996705
 N         -4.1546423391       -0.9539662440        0.6183287795
 C         -1.0177050356        0.3794341983       -0.7808077744
 C          0.3089031065        0.0241672241       -0.9312266114
 C          1.1734063123        0.8963941929       -1.6238736224
 N          1.8536976663        1.6201811940       -2.2005905513
 C          3.2120535102       -0.8939262525       -0.2273911615
 C          3.2716261049        0.3198394801        0.4593803398
 C          4.5216640387        0.8211926712        0.7193577143
 H          4.7355916217        3.2809050899       -0.4100374041
 H          3.2613383009        3.2838452584        0.5548676218
 H          4.6535095477        4.2465414820        1.0693825436
 H          3.2466128378        2.1258630054        2.8358833088
 H          4.6506102204        3.0711116388        3.3392350443
 H          4.7044897018        1.3064140874        3.4082550314
 H          6.9412054820        3.8968055743        2.3774356673
 H          9.3548839433        3.4587048648        2.1362481617
 H         10.1555952764        1.4242340220        1.0246223421
 H          8.5535176934       -0.2280144811        0.1265963812
 H          6.5363864564       -1.6238287440       -0.5983119019
 H          5.6716136110       -3.9356606072       -1.8268140277
 H          4.3260468852       -5.7543085768       -2.8235218888
 H          1.8797067295       -5.6466376166       -2.8275269048
 H          0.6901734345       -3.7323797439       -1.8183957340
 H          0.2248525424       -3.0245175915        0.5683256152
 H         -2.1500498122       -2.3874430007        0.8246904415
 H         -3.5812538949        3.2008516891       -1.7132253742
 H         -4.4165784782        5.3235576637       -2.6705373041
 H         -6.7987822156        5.9203977186       -2.4459737364
 H         -8.3445029870        4.4044403252       -1.2653565270
 H         -7.4995524353        2.2811436092       -0.3110163779
 H         -8.0153894898       -0.1957516953        1.1082312875
 H         -9.6139370559       -1.7081161408        2.2441382490
 H         -8.8303624817       -3.8600305186        3.1568895855
 H         -6.4597866321       -4.5022922691        2.9398009730
 H         -4.8688686388       -2.9826447953        1.8045878267
 H         -1.3724461406        1.3251409494       -1.1605587797
 H          2.3753510456        0.8342776840        0.7682183494
  77
  -120.993364587500       0.181610648585575      !
 C          4.2908056097        3.2941154828        0.6611172246
 C          4.8109083361        2.0892539915        1.4521178456
 C          4.2434548157        2.0959104385        2.8745140592
 C          6.3214113823        2.0588467897        1.4608143679
 C          7.2020881853        2.9736904950        1.9943010576
 C          8.5662355212        2.7370903583        1.8790976101
 C          9.0401269099        1.6011272616        1.2372805694
 C          8.1640507092        0.6763641670        0.6973424271
 C          6.7996714352        0.9077580599        0.8110331384
 C          5.6695516529        0.1281697449        0.3549746140
 C          5.6349629391       -1.0834072150       -0.3221587219
 C          4.3902515092       -1.6012269451       -0.6329382145
 C          3.9616275544       -2.8040398559       -1.2979100381
 C          4.6324004820       -3.8666784596       -1.8817548896
 C          3.8885608478       -4.8772530454       -2.4679655701
 C          2.4979576652       -4.8294839743       -2.4853992472
 C          1.8061272495       -3.7786763449       -1.9088717058
 C          2.5476533367       -2.7747857660       -1.3046211324
 N          2.1134071223       -1.6220888327       -0.6798233330
 C          0.7737937224       -1.2483516828       -0.5213878856
 C         -0.1348800179       -2.1111644393        0.1025612204
 C         -1.4475431854       -1.7575916418        0.2630556873
 C         -1.9269015844       -0.5077878075       -0.2085331199
 C         -3.2844237685       -0.1358090055       -0.0503101490
 N         -3.7321785086        1.0322453369       -0.5714266365
 C         -4.9898792619        1.3511381527       -0.4130484689
 C         -5.4832061658        2.5988885438       -0.9848952912
 C         -6.8106171894        2.9811137359       -0.7925058108
 C         -7.2786527971        4.1580383431       -1.3422909540
 C         -6.4321355936        4.9639213840       -2.0876576488
 C         -5.1109247478        4.5891721603       -2.2813716585
 C         -4.6353395290        3.4144984386       -1.7348639698
 N         -5.8628610312        0.5704903777        0.2501689926
 C         -5.3844155292       -0.5833332635        0.7499907979
 C         -6.3082581358       -1.4510427874        1.4721069355
 C         -7.6493881203       -1.0906461989        1.6020428742
 C         -8.5236138231       -1.9108266675        2.2871415781
 C         -8.0722240615       -3.0951061137        2.8489814312
 C         -6.7394613668       -3.4583612934        2.7230530038
 C         -5.8596965527       -2.6440103507        2.0392310165
 N         -4.1364351838       -0.9502816458        0.6189635839
 C         -1.0184933266        0.3561356216       -0.8450947724
 C          0.3075275607        0.0018505008       -1.0014682981
 C          1.1728859702        0.8774403685       -1.6888185349
 N          1.8573712525        1.6011159902       -2.2615546841
 C          3.2047916220       -0.9054158601       -0.2689473066
 C          3.2421759786        0.2969771407        0.4387765494
 C          4.4833014564        0.8023101359        0.7309592000
 H          4.6992917126        3.2850959974       -0.3464530951
 H          3.2069600976        3.2579762310        0.5901172750
 H          4.5812940767        4.2210410367        1.1494039121
 H          3.1572636289        2.0590103218        2.8465057316
 H          4.5466814720        2.9998290113        3.3969650523
 H          4.6076586170        1.2342658082        3.4301477151
 H          6.8458798570        3.8620648046        2.4949155624
 H          9.2672805549        3.4462227269        2.2937216894
 H         10.1051444150        1.4393851621        1.1594638358
 H          8.5339625539       -0.2064401642        0.1978146020
 H          6.5403993758       -1.6026907986       -0.5950052051
 H          5.7111149032       -3.9015217020       -1.8830327359
 H          4.3935516656       -5.7133782345       -2.9274261509
 H          1.9467182932       -5.6258059898       -2.9620923510
 H          0.7281442990       -3.7367958494       -1.9375645330
 H          0.2290449697       -3.0563925735        0.4791221515
 H         -2.1442816748       -2.4173828782        0.7541595114
 H         -7.4564577956        2.3426561854       -0.2097729717
 H         -8.3073196100        4.4514910833       -1.1910917181
 H         -6.8011348830        5.8830552695       -2.5184434167
 H         -4.4523100219        5.2174201088       -2.8627331452
 H         -3.6107611095        3.1084586694       -1.8792859481
 H         -7.9842034999       -0.1659009488        1.1584048573
 H         -9.5613648959       -1.6280839955        2.3868305958
 H         -8.7578078079       -3.7345421901        3.3853290812
 H         -6.3893625150       -4.3816628247        3.1612527180
 H         -4.8198380446       -2.9123943588        1.9337977003
 H         -1.3747770788        1.3038875346       -1.2182015865
 H          2.3361613562        0.7991303560        0.7394018517
  77
  -120.993361061300       0.180934248153037      !
 C          4.2281515312        3.3161193140        0.4363146397
 C          4.7731355869        2.1747667391        1.3013619241
 C          4.2171948958        2.2680155437        2.7252899177
 C          6.2838476649        2.1665686918        1.2988597232
 C          7.1548561934        3.1298945707        1.7576509308
 C          8.5214582057        2.9057810570        1.6465635885
 C          9.0072877302        1.7336109110        1.0835266075
 C          8.1410015148        0.7600354345        0.6187870435
 C          6.7742222183        0.9794521141        0.7274267161
 C          5.6524207427        0.1559570067        0.3323701385
 C          5.6296388713       -1.0972317612       -0.2649562040
 C          4.3900344982       -1.6448687998       -0.5433433530
 C          3.9736128005       -2.8885477878       -1.1368908445
 C          4.6564582286       -3.9802367249       -1.6486551247
 C          3.9246602939       -5.0302162279       -2.1779096033
 C          2.5341462539       -4.9918009466       -2.2121468923
 C          1.8305167249       -3.9119634269       -1.7079039141
 C          2.5594276920       -2.8689241569       -1.1566037686
 N          2.1131518010       -1.6841644397       -0.6035083979
 C          0.7723375041       -1.3060423505       -0.4770486981
 C         -0.1478392497       -2.1509265937        0.1553632515
 C         -1.4612744267       -1.7900184020        0.2903571466
 C         -1.9277562723       -0.5440467978       -0.2037698899
 C         -3.2824042490       -0.1575121598       -0.0564363396
 N         -3.6973859333        1.0478969696       -0.5161311940
 C         -4.9500084294        1.3851268062       -0.3542710426
 C         -5.4006605537        2.6898864196       -0.8248948463
 C         -4.4995337520        3.5777332493       -1.4133431181
 C         -4.9317998155        4.8128963979       -1.8519150340
 C         -6.2628007923        5.1768915261       -1.7099555659
 C         -7.1628752762        4.2984270563       -1.1265250126
 C         -6.7379377660        3.0610559446       -0.6852244434
 N         -5.8536520921        0.5771108228        0.2309726354
 C         -5.4080266048       -0.6152133034        0.6658475372
 C         -6.3647014171       -1.5151047019        1.3005366541
 C         -5.9609696068       -2.7748214167        1.7434824455
 C         -6.8709140583       -3.6218836261        2.3429462653
 C         -8.1903646108       -3.2249289854        2.5065495473
 C         -8.5970823361       -1.9742148033        2.0682564424
 C         -7.6921240238       -1.1215056215        1.4678199615
 N         -4.1616585651       -0.9927617679        0.5484696649
 C         -1.0086093223        0.3014151103       -0.8493071013
 C          0.3151568966       -0.0664931192       -0.9932654451
 C          1.1818488880        0.7835602686       -1.7106707117
 N          1.8633538550        1.4863943881       -2.3122958047
 C          3.1976057430       -0.9383446379       -0.2258983863
 C          3.2234522947        0.3026875134        0.4123919794
 C          4.4593915541        0.8386109642        0.6693227511
 H          4.6251624838        3.2432209887       -0.5731718602
 H          3.1442893508        3.2611287204        0.3806624859
 H          4.5112010884        4.2779550227        0.8566360829
 H          3.1316055591        2.2113015756        2.7097395875
 H          4.5089518150        3.2102442627        3.1825020817
 H          4.6005463354        1.4522263766        3.3346788092
 H          6.7892315235        4.0465018837        2.1968603704
 H          9.2150254632        3.6532091048        2.0024140064
 H         10.0739677879        1.5822384588        1.0077034517
 H          8.5201520525       -0.1506266830        0.1798470885
 H          6.5400143388       -1.6239039718       -0.5052989563
 H          5.7353322706       -4.0075163828       -1.6378244900
 H          4.4389611641       -5.8901583984       -2.5795158313
 H          1.9921049799       -5.8191353696       -2.6445987202
 H          0.7528298894       -3.8791286802       -1.7521074930
 H          0.2075512355       -3.0874767400        0.5604461833
 H         -2.1663997284       -2.4371926864        0.7862552649
 H         -3.4671059075        3.2812209074       -1.5170651131
 H         -4.2309008893        5.4982804597       -2.3057486957
 H         -6.5974944403        6.1446499864       -2.0536383793
 H         -8.1994342522        4.5822872620       -1.0175020482
 H         -7.4255057621        2.3655227133       -0.2296203877
 H         -4.9321323436       -3.0694994069        1.6069674414
 H         -6.5558481896       -4.5972792117        2.6831599292
 H         -8.9003840296       -3.8903937212        2.9754709241
 H         -9.6244677789       -1.6658105467        2.1969242204
 H         -7.9921184979       -0.1445768359        1.1218306122
 H         -1.3568058943        1.2417422294       -1.2479659267
 H          2.3135789405        0.8124446701        0.6871051422
  77
  -120.993212260700       0.154574111601058      !
 C          4.3263406565        2.5829158447        2.4785461074
 C          4.7747794786        1.1233689877        2.6044160301
 C          4.1108297252        0.4623238128        3.8167378784
 C          6.2806540100        1.0216777508        2.6832916340
 C          7.1334317633        1.5368216764        3.6343714632
 C          8.4988241915        1.3190462094        3.4985392643
 C          9.0010670073        0.5959667119        2.4254994695
 C          8.1527786978        0.0735343828        1.4653410598
 C          6.7875001190        0.2880262408        1.5971805668
 C          5.6823077780       -0.1296726266        0.7617161160
 C          5.6823094129       -0.8600229955       -0.4189823119
 C          4.4573486181       -1.1109184857       -1.0112934404
 C          4.0646372830       -1.8040691751       -2.2104887268
 C          4.7635920134       -2.4884426789       -3.1915602164
 C          4.0501035930       -3.0793457797       -4.2209885796
 C          2.6614798329       -3.0052618707       -4.2686189168
 C          1.9423290671       -2.3279151823       -3.3002341246
 C          2.6553976768       -1.7128275094       -2.2823758562
 N          2.1899571577       -1.0005282385       -1.1945666079
 C          0.8476603730       -0.7118027990       -0.9243499505
 C          0.2717917059       -1.0745789513        0.2988059217
 C         -1.0464761688       -0.8152624004        0.5619360803
 C         -1.8666160508       -0.1693911239       -0.3993296450
 C         -3.2374442505        0.0805301650       -0.1462858052
 N         -3.9910298626        0.7205055807       -1.0729191894
 C         -5.2583734278        0.9223082867       -0.8259259089
 C         -6.0771131754        1.6007321671       -1.8238189234
 C         -5.5123487256        2.0315644777       -3.0246598735
 C         -6.2931887853        2.6704725202       -3.9662771378
 C         -7.6416174271        2.8871193322       -3.7233052745
 C         -8.2080468747        2.4617354293       -2.5315555765
 C         -7.4333868321        1.8216973431       -1.5846731176
 N         -5.8487869862        0.5304166575        0.3184679959
 C         -5.0695795915       -0.0971529561        1.2177659319
 C         -5.6849331316       -0.5432606414        2.4628815810
 C         -4.9250579413       -1.2029836569        3.4290755440
 C         -5.5159083725       -1.6302142850        4.6008055508
 C         -6.8666185723       -1.4059523739        4.8230181953
 C         -7.6263607961       -0.7496703027        3.8669791827
 C         -7.0422683708       -0.3190250812        2.6923655632
 N         -3.7988843682       -0.3303910076        1.0169940093
 C         -1.2843333796        0.2164185402       -1.6198632377
 C          0.0457969591       -0.0438163626       -1.8841328654
 C          0.6104691124        0.4177067753       -3.0909716650
 N          1.0594432832        0.8230166308       -4.0677607415
 C          3.2562045074       -0.6346255917       -0.4179730497
 C          3.2601429938        0.1149851736        0.7594905117
 C          4.4824833543        0.3525187782        1.3367667496
 H          4.7919502279        3.0462383918        1.6113776563
 H          3.2465575035        2.6378909378        2.3637476985
 H          4.6108808277        3.1424187828        3.3661660303
 H          4.4318665361       -0.5735716085        3.9037190253
 H          3.0286851228        0.4846910056        3.7128526117
 H          4.3833134388        0.9878258556        4.7286108331
 H          6.7550988615        2.1019445800        4.4737157630
 H          9.1783715575        1.7181642731        4.2368652911
 H         10.0664967248        0.4408130776        2.3405615297
 H          8.5447245020       -0.4883809908        0.6308447480
 H          6.5999471075       -1.2143251495       -0.8618975860
 H          5.8396601389       -2.5614859137       -3.1505621463
 H          4.5768513456       -3.6142506910       -4.9966271540
 H          2.1327347941       -3.4881821021       -5.0760911546
 H          0.8651341357       -2.2855094151       -3.3374567714
 H          0.8850396198       -1.5917410735        1.0230242608
 H         -1.4934573631       -1.1067241286        1.4986374176
 H         -4.4619539721        1.8564578147       -3.2000494272
 H         -5.8524130200        3.0023177396       -4.8950302703
 H         -8.2497143397        3.3871833267       -4.4626855168
 H         -9.2581744338        2.6310481891       -2.3433259515
 H         -7.8586389856        1.4841525192       -0.6522955410
 H         -3.8760034559       -1.3718105946        3.2408438380
 H         -4.9250838439       -2.1416640646        5.3466649616
 H         -7.3261040892       -1.7430006871        5.7404867686
 H         -8.6782701173       -0.5758712395        4.0405452988
 H         -7.6195190508        0.1924402117        1.9378264745
 H         -1.8928865386        0.7289009411       -2.3487416178
 H          2.3416917058        0.4937042254        1.1806149181
  77
  -120.992861434400       0.106637057978224      !
 C          4.3373340153        2.6540958538        2.3612075420
 C          4.7782384358        1.1990144225        2.5534518209
 C          4.1114758728        0.5980982320        3.7945493022
 C          6.2840617381        1.0972935936        2.6335338547
 C          7.1396691996        1.6466103711        3.5626925391
 C          8.5046720257        1.4244473859        3.4303896304
 C          9.0037515057        0.6632177258        2.3825433657
 C          8.1525618045        0.1064630408        1.4444363959
 C          6.7877784257        0.3257934143        1.5725165617
 C          5.6803247136       -0.1199532649        0.7547181937
 C          5.6783842601       -0.8842770635       -0.4043479155
 C          4.4524513504       -1.1512527841       -0.9876061185
 C          4.0573567549       -1.8704797235       -2.1706435183
 C          4.7539273837       -2.5717049206       -3.1414433752
 C          4.0377751220       -3.1808754911       -4.1583599232
 C          2.6489683524       -3.1078086029       -4.2042100126
 C          1.9321118379       -2.4136066519       -3.2461852948
 C          2.6479138881       -1.7813113111       -2.2409578169
 N          2.1847953866       -1.0479332734       -1.1667563772
 C          0.8425889622       -0.7518544955       -0.9014273660
 C          0.2611092524       -1.1078927446        0.3207807606
 C         -1.0573939514       -0.8427884437        0.5771954795
 C         -1.8694717602       -0.1924929024       -0.3879791118
 C         -3.2395532964        0.0661841540       -0.1400747455
 N         -3.9777257475        0.7419242123       -1.0538100043
 C         -5.2444773081        0.9525113998       -0.8106614541
 C         -6.0420511362        1.6834985265       -1.7885965080
 C         -5.4474080055        2.1921582660       -2.9437316828
 C         -6.2057394125        2.8875872820       -3.8634593312
 C         -7.5614998052        3.0828301138       -3.6443036517
 C         -8.1579066271        2.5785871805       -2.4987941095
 C         -7.4056041586        1.8826637307       -1.5734224957
 N         -5.8517007699        0.5270469398        0.3124530540
 C         -5.0869502064       -0.1343210013        1.2003684363
 C         -5.7186991393       -0.6140315582        2.4243739782
 C         -4.9768759330       -1.3221419447        3.3702045367
 C         -5.5827747515       -1.7810489946        4.5220996329
 C         -6.9308300120       -1.5410944280        4.7443563467
 C         -7.6727303484       -0.8373423498        3.8082970229
 C         -7.0734634089       -0.3744380594        2.6536914507
 N         -3.8156616554       -0.3700180365        1.0064393910
 C         -1.2805551707        0.1882394700       -1.6069394916
 C          0.0481763412       -0.0832373863       -1.8666431491
 C          0.6205963013        0.3633420336       -3.0754214253
 N          1.0783158959        0.7553430444       -4.0535200219
 C          3.2524260063       -0.6624523616       -0.4023523346
 C          3.2578047679        0.1190691140        0.7540405951
 C          4.4817148420        0.3785304114        1.3184166053
 H          4.8064394012        3.0748996931        1.4743214652
 H          3.2579735183        2.7094559886        2.2423124531
 H          4.6241593029        3.2522151187        3.2227376459
 H          4.4275846962       -0.4341474677        3.9293351575
 H          3.0293852880        0.6209260764        3.6898783145
 H          4.3865652580        1.1640268187        4.6811974126
 H          6.7639840749        2.2419603505        4.3819705091
 H          9.1863767908        1.8500113328        4.1516903112
 H         10.0690155578        0.5057680647        2.2995533796
 H          8.5419535844       -0.4847858464        0.6293243113
 H          6.5955384884       -1.2491436729       -0.8395883278
 H          5.8301328787       -2.6434196801       -3.1024475064
 H          4.5626682596       -3.7291610961       -4.9256722128
 H          2.1186047053       -3.6042603628       -5.0022440370
 H          0.8548746877       -2.3693365709       -3.2820530498
 H          0.8702160390       -1.6235814720        1.0495523933
 H         -1.5100862761       -1.1303267987        1.5123257803
 H         -4.3914312760        2.0341058283       -3.1000329848
 H         -5.7414362881        3.2810792176       -4.7559142766
 H         -8.1518999073        3.6277303249       -4.3661601202
 H         -9.2138982656        2.7306562874       -2.3295157206
 H         -7.8545966062        1.4834685352       -0.6771869590
 H         -3.9296690394       -1.5027303237        3.1821900012
 H         -5.0056146328       -2.3290580453        5.2529285088
 H         -7.4018871649       -1.9024547014        5.6467737532
 H         -8.7224368526       -0.6508735669        3.9820928990
 H         -7.6368633681        0.1738054347        1.9147050118
 H         -1.8837706468        0.7015148574       -2.3397096763
 H          2.3389630905        0.5057718238        1.1672779499
  77
  -120.992762462000       9.603368391237091E-002 !
 C          4.5407676077        2.5991255170        2.5032491312
 C          4.9259701549        1.1205480812        2.6162000520
 C          4.2584241399        0.4856116015        3.8403524711
 C          6.4274218932        0.9526578315        2.6653974815
 C          7.3205777947        1.4227364763        3.6027395003
 C          8.6716531257        1.1421256020        3.4409879483
 C          9.1202688717        0.4017111577        2.3560448215
 C          8.2314807985       -0.0737724811        1.4082705974
 C          6.8804513847        0.2043444331        1.5657615713
 C          5.7424075765       -0.1572565926        0.7489221686
 C          5.6900333200       -0.8745694978       -0.4383643083
 C          4.4446901100       -1.0707410482       -1.0075287593
 C          4.0035502406       -1.7368957051       -2.2048244649
 C          4.6579767723       -2.4329347974       -3.2082245917
 C          3.9029811355       -2.9883478706       -4.2277174329
 C          2.5167995552       -2.8690411819       -4.2427442816
 C          1.8420748966       -2.1790032854       -3.2516108770
 C          2.5974833110       -1.5973367509       -2.2446033271
 N          2.1798448604       -0.8791690670       -1.1404354576
 C          0.8478123853       -0.5655161903       -0.8483599161
 C          0.2715625947       -0.9369697968        0.3718464868
 C         -1.0514834860       -0.6943175754        0.6287541650
 C         -1.8766698175       -0.0626847748       -0.3377780647
 C         -3.2599695355        0.1375928197       -0.1096545784
 N         -4.0198145798        0.7381121078       -1.0585164005
 C         -5.3021952267        0.8738642309       -0.8464721386
 C         -6.1295046648        1.4944452717       -1.8752146372
 C         -5.5511298048        1.9734471096       -3.0510098778
 C         -6.3400158647        2.5538909189       -4.0234406787
 C         -7.7102333912        2.6627652940       -3.8366725026
 C         -8.2904638712        2.1880905956       -2.6703415951
 C         -7.5076170753        1.6071305362       -1.6924377770
 N         -5.9015765051        0.4615797453        0.2853707542
 C         -5.1146394170       -0.1176278491        1.2109199952
 C         -5.7384076834       -0.5788912243        2.4458910512
 C         -4.9726610258       -1.1928363660        3.4374202852
 C         -5.5713681459       -1.6332250327        4.6004187291
 C         -6.9358517135       -1.4680473630        4.7886108676
 C         -7.7015481672       -0.8576188500        3.8071941070
 C         -7.1096968892       -0.4139828145        2.6412314977
 N         -3.8297960974       -0.2919595693        1.0420930049
 C         -1.2886743062        0.3513105975       -1.5464691044
 C          0.0464110316        0.1116248603       -1.8026205106
 C          0.6186299054        0.5992807497       -2.9956051141
 N          1.0743849100        1.0282142442       -3.9588542112
 C          3.2740248273       -0.5574983466       -0.3838011505
 C          3.3319044027        0.1816421300        0.7992360162
 C          4.5747995028        0.3688026089        1.3514971936
 H          5.0146786017        3.0455411288        1.6316352045
 H          3.4629598594        2.7023966205        2.4036672847
 H          4.8623403953        3.1409014842        3.3894328721
 H          3.1765314811        0.5597641023        3.7610991039
 H          4.5758502612        0.9930891347        4.7479627492
 H          4.5321639469       -0.5647740763        3.9158924705
 H          6.9846796110        2.0003068875        4.4515108517
 H          9.3823447401        1.5047568138        4.1687693035
 H         10.1753892380        0.1958421912        2.2519770904
 H          8.5813628655       -0.6492000344        0.5643980516
 H          6.5837387850       -1.2604979448       -0.9031981326
 H          5.7316888551       -2.5414910554       -3.1920046297
 H          4.3944635420       -3.5309668981       -5.0209177288
 H          1.9543343282       -3.3260350157       -5.0425205212
 H          0.7661658066       -2.1026965909       -3.2640731638
 H          0.8862630652       -1.4518235099        1.0964829900
 H         -1.5000312276       -0.9964279045        1.5613527606
 H         -4.4840035328        1.8818458396       -3.1829112159
 H         -5.8885074503        2.9239477824       -4.9323296457
 H         -8.3245999172        3.1169749653       -4.6001369541
 H         -9.3577073357        2.2727705185       -2.5261262466
 H         -7.9435313727        1.2318981035       -0.7795452893
 H         -3.9127486067       -1.3155094922        3.2756649449
 H         -4.9758822009       -2.1086511670        5.3662225495
 H         -7.4012953009       -1.8150124898        5.6994813244
 H         -8.7640372693       -0.7295842727        3.9543882717
 H         -7.6914271122        0.0621221799        1.8672028682
 H         -1.8983521996        0.8649140937       -2.2736217002
 H          2.4372137722        0.5902157372        1.2433215363
  77
  -120.992745558300       9.433116245543918E-002 !
 C          4.1275363261        3.3201970491        0.3149101802
 C          4.7035497526        2.2186184714        1.2102873744
 C          4.1562152080        2.3442582996        2.6354262283
 C          6.2139474160        2.2414170636        1.1990465184
 C          7.0667826739        3.2410672792        1.6118498465
 C          8.4372049628        3.0410885037        1.5019615866
 C          8.9446540343        1.8564802468        0.9860358266
 C          8.0967139747        0.8460849804        0.5683636131
 C          6.7261977506        1.0414117230        0.6756132309
 C          5.6197849693        0.1809760356        0.3176476563
 C          5.6192674745       -1.0967270944       -0.2258281874
 C          4.3896598182       -1.6740624482       -0.4884453474
 C          3.9954164354       -2.9467450039       -1.0335096351
 C          4.6983166732       -4.0520162171       -1.4853432926
 C          3.9868718288       -5.1333013306       -1.9778792367
 C          2.5968799484       -5.1115165573       -2.0375183368
 C          1.8735062789       -4.0183850832       -1.5933975571
 C          2.5813242017       -2.9446546751       -1.0743467236
 N          2.1137759633       -1.7436396041       -0.5758809383
 C          0.7698468668       -1.3695895371       -0.4834836168
 C         -0.1618683512       -2.2045557456        0.1456354753
 C         -1.4751456081       -1.8365324524        0.2614558437
 C         -1.9278741691       -0.5881377852       -0.2392192306
 C         -3.2764789628       -0.1828134184       -0.0870291716
 N         -3.6644599732        1.0494954368       -0.4941720473
 C         -4.9055358203        1.4133413991       -0.3031285713
 C         -5.3203963052        2.7547732882       -0.6965895938
 C         -4.3930310219        3.6532868975       -1.2251747172
 C         -4.7892206515        4.9259097222       -1.5832436334
 C         -6.1099689267        5.3171231510       -1.4198663925
 C         -7.0362691819        4.4278882072       -0.8968851909
 C         -6.6474909060        3.1532423954       -0.5359240642
 N         -5.8271763864        0.6019494863        0.2494686932
 C         -5.4116380520       -0.6229544904        0.6171769854
 C         -6.3904133211       -1.5337987851        1.2008685833
 C         -6.0417079217       -2.8546161048        1.4835299068
 C         -6.9723755559       -3.7134386849        2.0320636916
 C         -8.2568036585       -3.2668152921        2.3060916445
 C         -8.6085155073       -1.9551410686        2.0276870921
 C         -7.6836076418       -1.0904937814        1.4764353736
 N         -4.1748975647       -1.0243181772        0.4802276759
 C         -0.9995214352        0.2434773858       -0.8893376879
 C          0.3217242608       -0.1363858636       -1.0236383084
 C          1.1925337633        0.6944878307       -1.7587078441
 N          1.8736515978        1.3795198091       -2.3814630615
 C          3.1849432144       -0.9715202653       -0.2116612756
 C          3.1885159276        0.2911252432        0.3834900352
 C          4.4144871598        0.8556720434        0.6257982659
 H          4.5148442479        3.2210467703       -0.6961502840
 H          3.0444444536        3.2431177173        0.2736826593
 H          4.3968787800        4.3003998726        0.7002423002
 H          3.0719323633        2.2622913415        2.6310939527
 H          4.4297412945        3.3067956942        3.0606113520
 H          4.5628218088        1.5569421531        3.2668514158
 H          6.6841336352        4.1678194398        2.0136801730
 H          9.1166645596        3.8175268237        1.8209563805
 H         10.0138214992        1.7245348153        0.9094119066
 H          8.4928348294       -0.0739630164        0.1654757836
 H          6.5389086606       -1.6188593938       -0.4392556598
 H          5.7771016697       -4.0665101913       -1.4555473505
 H          4.5169317602       -6.0049908119       -2.3305921729
 H          2.0708516776       -5.9630206122       -2.4418815046
 H          0.7966214017       -3.9998720504       -1.6589852043
 H          0.1840185338       -3.1372104170        0.5671576315
 H         -2.1889130150       -2.4755581690        0.7555196004
 H         -3.3685720850        3.3359227012       -1.3448952645
 H         -4.0679927750        5.6192613738       -1.9909630202
 H         -6.4159294858        6.3145260111       -1.6994064737
 H         -8.0647387945        4.7332972610       -0.7708194322
 H         -7.3559135214        2.4488799068       -0.1279522820
 H         -5.0398154090       -3.1882864255        1.2599985433
 H         -6.7010267693       -4.7370707945        2.2454798003
 H         -8.9824288441       -3.9414320927        2.7362768895
 H         -9.6087251815       -1.6078377688        2.2429951605
 H         -7.9409142798       -0.0670977168        1.2530171862
 H         -1.3389482502        1.1814584056       -1.3010429682
 H          2.2701042418        0.7961340075        0.6376882451
