  77
       -121.44919690
 C          4.2255986279        3.3228651100        0.4088604122
 C          4.7644910421        2.1963213403        1.2968323861
 C          4.1988667965        2.3137232724        2.7151491074
 C          6.2751837445        2.1880193609        1.3047751536
 C          7.1431944519        3.1589496661        1.7530983986
 C          8.5104870578        2.9329281196        1.6551519076
 C          8.9999609645        1.7513597271        1.1153971037
 C          8.1367114171        0.7700802441        0.6613324902
 C          6.7692574861        0.9913641375        0.7569101450
 C          5.6500469736        0.1613355634        0.3682292517
 C          5.6311424392       -1.1018000947       -0.2079050980
 C          4.3933794398       -1.6540271755       -0.4854167937
 C          3.9808199614       -2.9075740149       -1.0606194349
 C          4.6669681569       -4.0078115869       -1.5491306749
 C          3.9386317436       -5.0665835782       -2.0654865760
 C          2.5483895932       -5.0286966339       -2.1098550769
 C          1.8415072131       -3.9404354409       -1.6288047256
 C          2.5668052845       -2.8882287689       -1.0903088627
 N          2.1169538709       -1.6942428216       -0.5604376419
 C          0.7753677440       -1.3139752627       -0.4495566399
 C         -0.1492334030       -2.1479769826        0.1907974550
 C         -1.4635019552       -1.7847772808        0.3106898571
 C         -1.9264072094       -0.5473436266       -0.2076621044
 C         -3.2819677312       -0.1583102269       -0.0761477402
 N         -3.6936152233        1.0391484628       -0.5590342230
 C         -4.9472594577        1.3791262219       -0.4114637455
 C         -5.3944864117        2.6757372873       -0.9072051571
 C         -4.4892278529        3.5534416358       -1.5044612936
 C         -4.9182987039        4.7810089354       -1.9668507490
 C         -6.2501796670        5.1474139638       -1.8401661036
 C         -7.1543502375        4.2790055047       -1.2480787457
 C         -6.7326267255        3.0492771293       -0.7829736499
 N         -5.8550004183        0.5811870124        0.1812176425
 C         -5.4125385086       -0.6036106624        0.6392755049
 C         -6.3736610395       -1.4925715050        1.2825900483
 C         -5.9731574660       -2.7446134957        1.7495743002
 C         -6.8873021858       -3.5813519465        2.3570924964
 C         -8.2077754239       -3.1816256405        2.5049373099
 C         -8.6112979889       -1.9385058756        2.0427372352
 C         -7.7021317713       -1.0961375493        1.4341167830
 N         -4.1654582889       -0.9831467729        0.5368208082
 C         -1.0027462376        0.2870131720       -0.8611560881
 C          0.3219131533       -0.0833379870       -0.9898222823
 C          1.1936112465        0.7543932463       -1.7156079956
 N          1.8793138715        1.4468971741       -2.3244000719
 C          3.1989244971       -0.9421726529       -0.1881381987
 C          3.2206123567        0.3095025760        0.4291803525
 C          4.4548548187        0.8496541006        0.6854128546
 H          4.6294735531        3.2328444046       -0.5965132363
 H          3.1421325716        3.2669837825        0.3467561792
 H          4.5059261735        4.2916775801        0.8147347314
 H          3.1133998600        2.2567988378        2.6931574379
 H          4.4876468266        3.2635567122        3.1582998184
 H          4.5779251005        1.5083679899        3.3408829035
 H          6.7747269409        4.0828874142        2.1741993701
 H          9.2017287474        3.6862535766        2.0030016303
 H         10.0671095252        1.5986791531        1.0494296315
 H          8.5187035777       -0.1479091551        0.2404924271
 H          6.5430530864       -1.6325095080       -0.4330677901
 H          5.7457389434       -4.0349484500       -1.5304796218
 H          4.4555244478       -5.9332329161       -2.4489371483
 H          2.0091802232       -5.8632220844       -2.5319049569
 H          0.7641520809       -3.9083101930       -1.6809092360
 H          0.2032389798       -3.0775388413        0.6141161592
 H         -2.1720945636       -2.4234210526        0.8126677822
 H         -3.4561632480        3.2551704183       -1.5960957756
 H         -4.2142132462        5.4585703925       -2.4274479152
 H         -6.5823695367        6.1092198634       -2.2024828901
 H         -8.1915840184        4.5647164570       -1.1509578455
 H         -7.4233952322        2.3615974265       -0.3203433686
 H         -4.9434594233       -3.0416064992        1.6250966911
 H         -6.5747171795       -4.5508518803        2.7159363053
 H         -8.9210809294       -3.8390144364        2.9802197251
 H         -9.6394885700       -1.6279216930        2.1591461057
 H         -7.9996061028       -0.1252031910        1.0695750700
 H         -1.3480680932        1.2204600863       -1.2780667225
 H          2.3089667477        0.8238821150        0.6889979324
  77
       -121.44913034
 C          4.2865686215        3.3054967580        0.6311150566
 C          4.8010919871        2.1150713936        1.4472236276
 C          4.2239020060        2.1473301864        2.8653455865
 C          6.3114962623        2.0848305805        1.4668220637
 C          7.1886052246        3.0091324699        1.9897795861
 C          8.5534817918        2.7705012720        1.8882093110
 C          9.0316252225        1.6231701165        1.2702089888
 C          8.1591597875        0.6888343243        0.7410113129
 C          6.7940610319        0.9222328897        0.8411612604
 C          5.6670004326        0.1345574862        0.3914725845
 C          5.6369087204       -1.0890126796       -0.2639625394
 C          4.3942947284       -1.6123470470       -0.5738969137
 C          3.9700947216       -2.8269369395       -1.2200320904
 C          4.6447264730       -3.8999112569       -1.7800410612
 C          3.9048013851       -4.9208771806       -2.3530513610
 C          2.5143561355       -4.8734342037       -2.3808758178
 C          1.8187161297       -3.8124207346       -1.8281142011
 C          2.5562032574       -2.7978129970       -1.2369628980
 N          2.1178227478       -1.6340569594       -0.6360080754
 C          0.7771996621       -1.2575326493       -0.4935142319
 C         -0.1358336076       -2.1089765283        0.1396207263
 C         -1.4495236321       -1.7525761500        0.2847209614
 C         -1.9254878113       -0.5114656999       -0.2125647239
 C         -3.2840180150       -0.1367033359       -0.0703744498
 N         -3.7280495871        1.0217793990       -0.6154903672
 C         -4.9867681494        1.3434674972       -0.4715049329
 C         -5.4760134782        2.5807199965       -1.0690888366
 C         -6.8046662110        2.9663422367       -0.8927163934
 C         -7.2687805830        4.1331776543       -1.4667943695
 C         -6.4170769067        4.9255151414       -2.2207257427
 C         -5.0946142279        4.5473437946       -2.3985995542
 C         -4.6229276846        3.3826999232       -1.8277871820
 N         -5.8643695998        0.5748822912        0.1996567426
 C         -5.3895003009       -0.5697552850        0.7234361795
 C         -6.3183756088       -1.4243280331        1.4547041033
 C         -7.6603214810       -1.0616551616        1.5689334729
 C         -8.5393215834       -1.8693727642        2.2626754344
 C         -8.0919361856       -3.0433448802        2.8488241534
 C         -6.7583852218       -3.4088037657        2.7385956424
 C         -5.8738555908       -2.6068917436        2.0462730752
 N         -4.1406951851       -0.9389988361        0.6075950332
 C         -1.0126334247        0.3408616260       -0.8583317020
 C          0.3143856708       -0.0161767335       -0.9992073560
 C          1.1845407811        0.8469007297       -1.6962586580
 N          1.8730230746        1.5601512010       -2.2772225989
 C          3.2064511427       -0.9101001823       -0.2306265419
 C          3.2391276288        0.3048381970        0.4555779149
 C          4.4782817348        0.8153530701        0.7471190870
 H          4.7019509851        3.2783422823       -0.3733053350
 H          3.2032309488        3.2680817325        0.5533478704
 H          4.5738144194        4.2410629513        1.1046170847
 H          3.1379239125        2.1099283255        2.8305596599
 H          4.5236487309        3.0605081770        3.3735070667
 H          4.5841848072        1.2958286021        3.4388837217
 H          6.8290802862        3.9063734824        2.4718672893
 H          9.2517532957        3.4869848685        2.2947977337
 H         10.0971316973        1.4600568702        1.2026200989
 H          8.5323811403       -0.2028180060        0.2600037747
 H          6.5441318507       -1.6131208213       -0.5212029566
 H          5.7234201134       -3.9347683492       -1.7732956767
 H          4.4128294827       -5.7651362229       -2.7939132496
 H          1.9663017811       -5.6782101675       -2.8469251559
 H          0.7409602390       -3.7710670442       -1.8649463617
 H          0.2253878949       -3.0472716516        0.5356220454
 H         -2.1496915740       -2.4034221322        0.7828337246
 H         -7.4545630238        2.3384761090       -0.3030266847
 H         -8.2984244331        4.4293013124       -1.3279583053
 H         -6.7830040134        5.8367440994       -2.6705069024
 H         -4.4319542232        5.1650267026       -2.9866468002
 H         -3.5974201028        3.0741132633       -1.9596486961
 H         -7.9919767042       -0.1450469970        1.1064358064
 H         -9.5776976617       -1.5848847297        2.3501413481
 H         -8.7812573494       -3.6730245076        3.3918824107
 H         -6.4114094323       -4.3240662934        3.1957348117
 H         -4.8333310238       -2.8771268399        1.9528199058
 H         -1.3662372462        1.2817423233       -1.2508725867
 H          2.3311338427        0.8123188048        0.7408963984
  77
       -121.44916281
 C          4.3428568036        3.3223271705        0.5781332794
 C          4.8632798351        2.1427101189        1.4062006965
 C          4.3141255427        2.2056959030        2.8343578482
 C          6.3736076455        2.1008669109        1.3973442289
 C          7.2681403845        3.0274521543        1.8857236467
 C          8.6288615941        2.7759689751        1.7615284448
 C          9.0859146725        1.6138085154        1.1553361634
 C          8.1959190581        0.6770174563        0.6608773160
 C          6.8349632871        0.9232970756        0.7839306622
 C          5.6934948334        0.1369001748        0.3705450735
 C          5.6419715272       -1.0977871464       -0.2620066735
 C          4.3899310844       -1.6154750542       -0.5410535396
 C          3.9464642989       -2.8365347980       -1.1609543209
 C          4.6049588938       -3.9231269815       -1.7137893217
 C          3.8492718550       -4.9464850900       -2.2611931346
 C          2.4590873148       -4.8871796553       -2.2715229636
 C          1.7796744589       -3.8122080430       -1.7255703328
 C          2.5329562778       -2.7954872429       -1.1582580774
 N          2.1127460393       -1.6187731555       -0.5685064185
 C          0.7761936955       -1.2319637601       -0.4190379823
 C         -0.1392173810       -2.0790382546        0.2170723286
 C         -1.4540859360       -1.7237950661        0.3526067280
 C         -1.9293690417       -0.4866126118       -0.1549594952
 C         -3.2924504554       -0.1209574333       -0.0345614757
 N         -3.7326189453        1.0443780995       -0.5682566936
 C         -4.9979676242        1.3510905834       -0.4526585811
 C         -5.4830325973        2.5978016849       -1.0335367109
 C         -4.6088244812        3.4484904418       -1.7107285709
 C         -5.0771432505        4.6218246368       -2.2663142699
 C         -6.4176935704        4.9603097578       -2.1543912154
 C         -7.2907005603        4.1195191815       -1.4813258757
 C         -6.8296124013        2.9442458130       -0.9224448709
 N         -5.8874971875        0.5579081007        0.1734273163
 C         -5.4154011683       -0.5912862880        0.6889390863
 C         -6.3564051038       -1.4740470079        1.3696491316
 C         -7.6992278538       -1.1142019011        1.4807973371
 C         -8.5898570438       -1.9513088560        2.1230633086
 C         -8.1535578779       -3.1523183500        2.6599745503
 C         -6.8190718910       -3.5154181906        2.5523880731
 C         -5.9229162173       -2.6837836017        1.9120298979
 N         -4.1589125664       -0.9431726183        0.6060583449
 C         -1.0122966417        0.3661828646       -0.7940530522
 C          0.3152506532        0.0083614846       -0.9293736046
 C          1.1845946458        0.8686829916       -1.6307960785
 N          1.8689171059        1.5825591706       -2.2150476827
 C          3.2133890892       -0.8977865632       -0.1902852745
 C          3.2684672823        0.3274467911        0.4761986809
 C          4.5167818801        0.8330840974        0.7361595872
 H          4.7387934717        3.2732845388       -0.4332916456
 H          3.2579942945        3.2926459399        0.5213455318
 H          4.6467754605        4.2638698811        1.0289490513
 H          3.2275307397        2.1735066125        2.8215132300
 H          4.6282111570        3.1270957032        3.3183319229
 H          4.6813413461        1.3638198736        3.4176281299
 H          6.9254423203        3.9362680700        2.3583193018
 H          9.3406406619        3.4940407247        2.1410652915
 H         10.1485948975        1.4409809123        1.0695814737
 H          8.5524194488       -0.2261901070        0.1887903215
 H          6.5400596457       -1.6340112250       -0.5260912248
 H          5.6833219614       -3.9663047794       -1.7210905667
 H          4.3442982589       -5.8015351925       -2.6959760299
 H          1.8980592609       -5.6938461110       -2.7184940069
 H          0.7019722294       -3.7627037057       -1.7501019342
 H          0.2204960407       -3.0144558615        0.6210448351
 H         -2.1559993363       -2.3730275080        0.8503645741
 H         -3.5689834026        3.1714914873       -1.7916393041
 H         -4.3974261256        5.2776952314       -2.7904798260
 H         -6.7810121549        5.8783559285       -2.5923236708
 H         -8.3349869667        4.3826986002       -1.3967451675
 H         -7.4968983246        2.2758534121       -0.4008002492
 H         -8.0227918484       -0.1766003120        1.0566869325
 H         -9.6292867386       -1.6694211032        2.2071413712
 H         -8.8522935088       -3.8055824531        3.1615709457
 H         -6.4803932138       -4.4515310918        2.9715792944
 H         -4.8815313061       -2.9514162387        1.8216430261
 H         -1.3642909834        1.3053295013       -1.1921948798
 H          2.3701876570        0.8470847452        0.7701488046
  77
       -121.44894892
 C          4.1241398912        3.3274102175        0.2815038041
 C          4.6938085228        2.2435213469        1.2021718858
 C          4.1358800115        2.3963423697        2.6205310555
 C          6.2042414548        2.2667454664        1.2016898335
 C          7.0537056590        3.2745229885        1.6014774648
 C          8.4249624450        3.0730518808        1.5056212726
 C          8.9365628694        1.8789471270        1.0163774530
 C          8.0920329139        0.8603348989        0.6119651635
 C          6.7207030974        1.0571039936        0.7052721585
 C          5.6172218337        0.1894625050        0.3557503205
 C          5.6211006231       -1.0984676063       -0.1630102527
 C          4.3936397917       -1.6812781950       -0.4235684938
 C          4.0038138991       -2.9643876900       -0.9469322368
 C          4.7103619845       -4.0778525096       -1.3721765801
 C          4.0028991083       -5.1687244180       -1.8490598759
 C          2.6133817987       -5.1486866027       -1.9194087101
 C          1.8864215285       -4.0475165283       -1.5017935940
 C          2.5900630198       -2.9636889762       -0.9982824641
 N          2.1184871898       -1.7534995431       -0.5265150769
 C          0.7738030192       -1.3783148504       -0.4513016364
 C         -0.1623160322       -2.2014121862        0.1868555123
 C         -1.4765212681       -1.8317890647        0.2858302631
 C         -1.9258786108       -0.5934592617       -0.2421329958
 C         -3.2756908717       -0.1858568607       -0.1077764211
 N         -3.6609917880        1.0382186192       -0.5414377217
 C         -4.9035545011        1.4051443684       -0.3666402652
 C         -5.3158667602        2.7385745665       -0.7889231315
 C         -4.3848615072        3.6271412698       -1.3278236232
 C         -4.7787463912        4.8924645677       -1.7132585402
 C         -6.1007818782        5.2861859556       -1.5672389665
 C         -7.0306832011        4.4067887586       -1.0341119790
 C         -6.6442303475        3.1394953626       -0.6458014473
 N         -5.8290381745        0.6041479672        0.1946320764
 C         -5.4158902353       -0.6132714646        0.5889288619
 C         -6.3987093829       -1.5131275782        1.1827804730
 C         -6.0517342278       -2.8281085946        1.4933999180
 C         -6.9862010545       -3.6766089644        2.0514560575
 C         -8.2727540912       -3.2253419562        2.3073050281
 C         -8.6227645883       -1.9194216697        2.0010952226
 C         -7.6940388671       -1.0651524664        1.4401668749
 N         -4.1780533990       -1.0166683429        0.4689043611
 C         -0.9929651995        0.2258819120       -0.9012454351
 C          0.3293487374       -0.1559313671       -1.0184094501
 C          1.2053509749        0.6610082589       -1.7628671287
 N          1.8908750698        1.3342144855       -2.3936321155
 C          3.1867026670       -0.9740526913       -0.1693011139
 C          3.1854999182        0.2998188225        0.4014365202
 C          4.4094787446        0.8694506592        0.6419094575
 H          4.5189665528        3.2089777531       -0.7245613653
 H          3.0414057115        3.2490880447        0.2337411675
 H          4.3903367283        4.3149654119        0.6498755693
 H          3.0516825561        2.3138433235        2.6097410978
 H          4.4059697276        3.3670045038        3.0291185150
 H          4.5380152012        1.6215032206        3.2699962140
 H          6.6678218067        4.2086761425        1.9825404554
 H          9.1018153611        3.8557786033        1.8146334001
 H         10.0063069526        1.7460083122        0.9502355005
 H          8.4913941458       -0.0671299315        0.2298156562
 H          6.5424487185       -1.6242188204       -0.3595215328
 H          5.7889003191       -4.0913085985       -1.3341116800
 H          4.5358096897       -6.0468163660       -2.1809835738
 H          2.0906107311       -6.0080431225       -2.3111883056
 H          0.8100476575       -4.0307304223       -1.5757058864
 H          0.1806998304       -3.1256302142        0.6288108903
 H         -2.1937523738       -2.4614892677        0.7868032850
 H         -3.3594521337        3.3079691964       -1.4338140012
 H         -4.0547111027        5.5781462384       -2.1288963735
 H         -6.4049443486        6.2778908723       -1.8681933416
 H         -8.0601468080        4.7141283571       -0.9215772607
 H         -7.3554594621        2.4428152347       -0.2296043325
 H         -5.0481158264       -3.1655921257        1.2837675467
 H         -6.7161513466       -4.6958261799        2.2865490562
 H         -9.0013585837       -3.8918615893        2.7450105854
 H         -9.6246430738       -1.5684652935        2.2022560069
 H         -7.9499725397       -0.0463578178        1.1951825558
 H         -1.3295955206        1.1556170718       -1.3334407076
 H          2.2650836877        0.8092351753        0.6390487017
  77
       -121.44841313
 C          4.3180267962        2.6150008852        2.4593258224
 C          4.7603856294        1.1566013399        2.6161922348
 C          4.0856189143        0.5211145430        3.8361843139
 C          6.2653001798        1.0512893735        2.7076370737
 C          7.1132217366        1.5815942801        3.6547177153
 C          8.4787496212        1.3565975788        3.5327213866
 C          8.9859222247        0.6114345268        2.4772526836
 C          8.1425276547        0.0736537758        1.5212661620
 C          6.7771299102        0.2952908072        1.6393340916
 C          5.6763381148       -0.1345155346        0.8042010274
 C          5.6820130627       -0.8872885429       -0.3623155957
 C          4.4603463819       -1.1452675109       -0.9583754431
 C          4.0735821337       -1.8598590035       -2.1468710556
 C          4.7769540830       -2.5652384186       -3.1097385736
 C          4.0685970742       -3.1732613585       -4.1327211777
 C          2.6806128181       -3.0953552560       -4.1915715463
 C          1.9571093322       -2.3971747149       -3.2413967709
 C          2.6652134731       -1.7651914005       -2.2304463477
 N          2.1947003150       -1.0306501247       -1.1597453760
 C          0.8515783821       -0.7322280024       -0.9045830948
 C          0.2658737192       -1.0695960184        0.3211715364
 C         -1.0532748915       -0.8007947790        0.5699798563
 C         -1.8643639651       -0.1706094100       -0.4092095237
 C         -3.2360340267        0.0887852615       -0.1706776917
 N         -3.9808343363        0.7135101399       -1.1146589211
 C         -5.2491515174        0.9243259776       -0.8805266172
 C         -6.0584683829        1.5863531744       -1.8969470056
 C         -5.4837820965        1.9922288633       -3.1017685478
 C         -6.2557348817        2.6156934189       -4.0609028467
 C         -7.6050537492        2.8415508714       -3.8316475862
 C         -8.1813219668        2.4409545432       -2.6360311553
 C         -7.4155898916        1.8164818847       -1.6716548739
 N         -5.8489525261        0.5563927369        0.2669351506
 C         -5.0782957402       -0.0565385638        1.1835309724
 C         -5.7039338504       -0.4766678579        2.4325519318
 C         -4.9531913261       -1.1204022078        3.4165068521
 C         -5.5537461483       -1.5231439704        4.5919703473
 C         -6.9051740874       -1.2900617128        4.8003092407
 C         -7.6558669819       -0.6495740774        3.8265737714
 C         -7.0620376353       -0.2434503648        2.6481143277
 N         -3.8070623340       -0.2979121039        0.9962340284
 C         -1.2721820358        0.1898159606       -1.6327366267
 C          0.0588333900       -0.0799657754       -1.8825827994
 C          0.6335784057        0.3564806697       -3.0939872749
 N          1.0908184131        0.7415155569       -4.0751348154
 C          3.2567765619       -0.6536220102       -0.3827578863
 C          3.2551326847        0.1183324882        0.7801848464
 C          4.4742368271        0.3626737648        1.3614493780
 H          4.7913401609        3.0600752551        1.5867867446
 H          3.2392760853        2.6714627533        2.3358691330
 H          4.5983302381        3.1903860933        3.3380963369
 H          4.4023569228       -0.5140210005        3.9451848560
 H          3.0043145747        0.5451912489        3.7242440707
 H          4.3535756583        1.0630098859        4.7397664504
 H          6.7310305499        2.1639416352        4.4804295228
 H          9.1545237621        1.7674253760        4.2680818457
 H         10.0513627150        0.4510455819        2.4028246314
 H          8.5383087706       -0.5054405488        0.7004363585
 H          6.6014653558       -1.2531234050       -0.7918912344
 H          5.8524424782       -2.6411624690       -3.0597484068
 H          4.5988597860       -3.7246864301       -4.8942679615
 H          2.1558228548       -3.5918060808       -4.9933986808
 H          0.8803588947       -2.3518063693       -3.2870356064
 H          0.8721943237       -1.5749187274        1.0594439465
 H         -1.5078368481       -1.0727757786        1.5088894823
 H         -4.4328136060        1.8102137303       -3.2663550004
 H         -5.8072903645        2.9282233817       -4.9926804186
 H         -8.2061780791        3.3294713617       -4.5847160636
 H         -9.2321337645        2.6174212935       -2.4584948365
 H         -7.8485569022        1.4982695865       -0.7360351068
 H         -3.9034508286       -1.2963795995        3.2389515962
 H         -4.9699794857       -2.0222652635        5.3516118284
 H         -7.3722672432       -1.6079454602        5.7207716222
 H         -8.7083418700       -0.4688959625        3.9893514105
 H         -7.6321700338        0.2554741966        1.8798906234
 H         -1.8737920224        0.6903547417       -2.3755456225
 H          2.3351061487        0.5081660588        1.1875024308
  77
       -121.44833019
 C          4.3293482760        2.6841553196        2.3418039934
 C          4.7640803957        1.2315454357        2.5644001559
 C          4.0866172724        0.6561314961        3.8117726169
 C          6.2689585268        1.1265713552        2.6570626062
 C          7.1198140693        1.6905048403        3.5818181313
 C          8.4849731600        1.4615730471        3.4633949152
 C          8.9888991512        0.6792441080        2.4335635001
 C          8.1424996566        0.1076922098        1.5000321955
 C          6.7775803749        0.3337120006        1.6142881418
 C          5.6744443999       -0.1237828941        0.7971422311
 C          5.6781382556       -0.9097032615       -0.3473857989
 C          4.4554661813       -1.1836845865       -0.9342289619
 C          4.0663354559       -1.9237195097       -2.1063595904
 C          4.7674024793       -2.6452357461       -3.0588820990
 C          4.0564179633       -3.2711004031       -4.0692664617
 C          2.6682172334       -3.1945039447       -4.1263362463
 C          1.9469316652       -2.4801850008       -3.1865987582
 C          2.6577246347       -1.8314179041       -2.1883368365
 N          2.1894810348       -1.0765551976       -1.1313784403
 C          0.8464254166       -0.7712980372       -0.8811787502
 C          0.2551843011       -1.1025030286        0.3433259618
 C         -1.0642083666       -0.8284570931        0.5853617242
 C         -1.8673200358       -0.1938089046       -0.3975675582
 C         -3.2382508004        0.0738148321       -0.1642862166
 N         -3.9677373884        0.7346335037       -1.0957384797
 C         -5.2354666538        0.9537592889       -0.8655774550
 C         -6.0237184560        1.6687991272       -1.8626733814
 C         -5.4192823706        2.1538143717       -3.0228844341
 C         -6.1688200972        2.8342699449       -3.9608398678
 C         -7.5254372978        3.0378862852       -3.7550113601
 C         -8.1315546790        2.5571120873       -2.6045192762
 C         -7.3880870693        1.8762871489       -1.6609545502
 N         -5.8519825244        0.5513635276        0.2609714211
 C         -5.0956894147       -0.0956541990        1.1665284307
 C         -5.7376193446       -0.5503160391        2.3947902414
 C         -5.0048149405       -1.2429087314        3.3589637227
 C         -5.6203192458       -1.6782053820        4.5149233446
 C         -6.9691057035       -1.4298516576        4.7230693163
 C         -7.7020704091       -0.7414329578        3.7687462115
 C         -7.0931655014       -0.3021696069        2.6099546875
 N         -3.8238526819       -0.3389764427        0.9860796631
 C         -1.2685835677        0.1621230840       -1.6192350078
 C          0.0610392028       -0.1183883715       -1.8643670448
 C          0.6434253452        0.3036220363       -3.0772051654
 N          1.1093105848        0.6757544810       -4.0592017395
 C          3.2529719189       -0.6801904538       -0.3667698194
 C          3.2527918835        0.1228634364        0.7747877888
 C          4.4735492761        0.3889839305        1.3428789664
 H          4.8060720498        3.0867601924        1.4505428603
 H          3.2510401447        2.7406970848        2.2142325543
 H          4.6120760552        3.2974170897        3.1939920740
 H          4.3983585366       -0.3744013128        3.9681142734
 H          3.0053715669        0.6804223196        3.6990125173
 H          4.3573263815        1.2377167664        4.6895934178
 H          6.7403397275        2.3023055891        4.3871108549
 H          9.1629856425        1.8984285357        4.1814179562
 H         10.0541951487        0.5168891463        2.3611029006
 H          8.5356644606       -0.4999735010        0.6989250016
 H          6.5971233370       -1.2855753888       -0.7691917990
 H          5.8430640962       -2.7196178736       -3.0109098470
 H          4.5848854652       -3.8353435767       -4.8224263391
 H          2.1418472924       -3.7041535184       -4.9186747152
 H          0.8701257626       -2.4331806395       -3.2309366865
 H          0.8574396879       -1.6063595974        1.0859369238
 H         -1.5244190219       -1.0969676955        1.5224772641
 H         -4.3627593703        1.9895110578       -3.1686962788
 H         -5.6969494451        3.2094786231       -4.8571911715
 H         -8.1089387628        3.5710194577       -4.4911229974
 H         -9.1882036946        2.7156766165       -2.4456209604
 H         -7.8446929554        1.4953986185       -0.7606078661
 H         -3.9569127133       -1.4303109631        3.1818049464
 H         -5.0501307882       -2.2142365591        5.2599698318
 H         -7.4476941824       -1.7727262069        5.6287311601
 H         -8.7523526652       -0.5484101666        3.9315612696
 H         -7.6495360204        0.2338993340        1.8568455746
 H         -1.8649276470        0.6634730705       -2.3657566803
 H          2.3323464019        0.5201603427        1.1741740792
  77
       -121.44820705
 C          4.5334056660        2.6283869881        2.4859796945
 C          4.9123495209        1.1507630094        2.6286649392
 C          4.2342169783        0.5408267986        3.8596910291
 C          6.4128023146        0.9784221135        2.6911539371
 C          7.3013585100        1.4624402662        3.6257692443
 C          8.6524428524        1.1740613204        3.4783946852
 C          9.1056103452        0.4122308886        2.4103006622
 C          8.2214721047       -0.0773986771        1.4653840682
 C          6.8704531398        0.2084082882        1.6085449457
 C          5.7366066204       -0.1640587319        0.7907515669
 C          5.6895744186       -0.9028758228       -0.3835002473
 C          4.4473762127       -1.1050062872       -0.9574323450
 C          4.0118471780       -1.7914639334       -2.1452765174
 C          4.6704344361       -2.5081663742       -3.1312566149
 C          3.9202714701       -3.0795090477       -4.1455005800
 C          2.5346748607       -2.9555286269       -4.1721493537
 C          1.8558504844       -2.2449789568       -3.1984616617
 C          2.6066077726       -1.6476183354       -2.1971795747
 N          2.1842045457       -0.9077885711       -1.1092453784
 C          0.8514067450       -0.5840468507       -0.8320485443
 C          0.2655719326       -0.9309462696        0.3908184290
 C         -1.0582661549       -0.6788712331        0.6342182677
 C         -1.8745703272       -0.0621511938       -0.3493369767
 C         -3.2586234957        0.1472437680       -0.1343483111
 N         -4.0098228503        0.7329461517       -1.0992207957
 C         -5.2930909768        0.8771695876       -0.8984372119
 C         -6.1111399187        1.4817042337       -1.9440024434
 C         -5.5230803775        1.9369415172       -3.1244259602
 C         -6.3032355267        2.5022429741       -4.1126921692
 C         -7.6742673051        2.6194438755       -3.9372844656
 C         -8.2641025691        2.1683657093       -2.7664155086
 C         -7.4900253073        1.6026703222       -1.7727089646
 N         -5.9016125434        0.4879056157        0.2366750341
 C         -5.1230857528       -0.0770143558        1.1780327120
 C         -5.7568703697       -0.5132660848        2.4169862014
 C         -5.0001069577       -1.1116290696        3.4248044782
 C         -5.6082686420       -1.5284221954        4.5915866472
 C         -6.9733673236       -1.3549222634        4.7674238246
 C         -7.7301617364       -0.7598896427        3.7697809607
 C         -7.1288236647       -0.3398796025        2.5999289345
 N         -3.8377894426       -0.2590252911        1.0211828736
 C         -1.2769099074        0.3274520222       -1.5613915447
 C          0.0589729905        0.0783136751       -1.8040077475
 C          0.6410246887        0.5419096943       -3.0018180505
 N          1.1048497301        0.9514328954       -3.9696519560
 C          3.2744461324       -0.5761939002       -0.3512113530
 C          3.3270931172        0.1843491084        0.8184288713
 C          4.5669237749        0.3771682428        1.3756096359
 H          5.0148334284        3.0570080356        1.6095661659
 H          3.4566841419        2.7336750271        2.3771854129
 H          4.8510064785        3.1851994739        3.3642401676
 H          3.1531656162        0.6173895460        3.7717278952
 H          4.5473995792        1.0637554690        4.7599751344
 H          4.5035422707       -0.5089682461        3.9563558966
 H          6.9618927684        2.0567110859        4.4614923922
 H          9.3595538748        1.5474542680        4.2042193032
 H         10.1606370272        0.2007020351        2.3172127693
 H          8.5748962498       -0.6694871389        0.6346146474
 H          6.5849543576       -1.3004832540       -0.8350794808
 H          5.7436026422       -2.6202558233       -3.1057391360
 H          4.4150719779       -3.6383713467       -4.9252457066
 H          1.9759209465       -3.4251221762       -4.9672144397
 H          0.7803403533       -2.1650564883       -3.2196453144
 H          0.8734600748       -1.4345980067        1.1289485059
 H         -1.5142070128       -0.9621825817        1.5691292163
 H         -4.4554365816        1.8391058041       -3.2473573815
 H         -5.8442417748        2.8539140214       -5.0251247941
 H         -8.2817848334        3.0617474958       -4.7131198751
 H         -9.3319722277        2.2595079927       -2.6310462171
 H         -7.9334715895        1.2458422624       -0.8560724620
 H         -3.9395908807       -1.2410539251        3.2725458839
 H         -5.0197256231       -1.9918278664        5.3700218148
 H         -7.4462235125       -1.6834192387        5.6813189406
 H         -8.7931363889       -0.6253626142        3.9073652400
 H         -7.7035534170        0.1240043421        1.8133517068
 H         -1.8797633021        0.8297895148       -2.3019801016
 H          2.4309519011        0.6042199896        1.2488414988
