  90
  -144.618884258400       0.405645173668311      !
 N        -10.9541867023       -1.8718171655        0.5125182503
 C         -9.9427389334       -1.3521512165        0.3677467696
 C         -8.7108134648       -0.6793493003        0.1826536039
 N         -7.5796865119       -1.3708700180        0.3607251356
 C         -6.4652487861       -0.6976117619        0.1783766162
 C         -6.4638207968        0.6991974630       -0.1828037619
 N         -7.5768972656        1.3754386365       -0.3627368703
 C         -8.7094122793        0.6872226433       -0.1812105025
 C         -9.9398291760        1.3642242226       -0.3612976510
 N        -10.9494883077        1.8890668190       -0.5005426431
 C         -5.0924446238        1.1361883975       -0.2911689663
 C         -4.4641765983        2.3248416002       -0.5890639821
 C         -3.0698874146        2.3657109924       -0.5114900699
 C         -2.2826664002        1.2681547859       -0.1856910594
 C         -0.8590094533        1.4820687690        0.0864146643
 C         -0.0373867614        2.1810743837       -0.7944421172
 C          1.2900954655        2.4022621319       -0.5007255883
 C          1.8385884679        1.9634091327        0.7095169380
 N          3.1784945525        2.1833567044        1.0010195280
 C          3.9035079878        1.3153688713        1.8299710283
 C          4.8909611665        1.8246139831        2.6733246977
 C          5.6303981161        0.9752729885        3.4733060176
 C          5.3950191381       -0.3898027554        3.4537934858
 C          4.4092626322       -0.8994352965        2.6251608237
 C          3.6705835321       -0.0587063271        1.8152321070
 C          3.8539438185        3.2765150133        0.4294330661
 C          3.2562252100        4.5343453118        0.3853301425
 C          3.9269225742        5.6015435048       -0.1812856096
 C          5.1992721384        5.4322598280       -0.7025577995
 C          5.7996957707        4.1846519646       -0.6533890284
 C          5.1347780270        3.1104659457       -0.0938455696
 C          1.0022709856        1.2983000529        1.6116839534
 C         -0.3142232052        1.0517194953        1.2969273532
 C         -2.9022412058       -0.0028281292       -0.0025317937
 C         -2.2851795718       -1.2748785887        0.1819848454
 C         -0.8614071210       -1.4894373777       -0.0891563509
 C         -0.3171746961       -1.0597705616       -1.3001909596
 C          1.0001188306       -1.3034100633       -1.6137597314
 C          1.8373796029       -1.9642670615       -0.7095268382
 N          3.1789138552       -2.1808669716       -0.9982500136
 C          3.8485961443       -3.2818517722       -0.4348137168
 C          3.2460988310       -4.5379284084       -0.4081440869
 C          3.9098829087       -5.6140105555        0.1494918654
 C          5.1800962128       -5.4551862511        0.6793025232
 C          5.7848460218       -4.2090138555        0.6485148625
 C          5.1266938121       -3.1259645896        0.0980060199
 C          3.9053679030       -1.3079232272       -1.8198952170
 C          4.9058551292       -1.8081904916       -2.6532242293
 C          5.6452766691       -0.9523586120       -3.4462705002
 C          5.3969052577        0.4104107887       -3.4307391095
 C          4.3981972907        0.9111312022       -2.6124188497
 C          3.6599977060        0.0641341263       -1.8087369780
 C          1.2893101497       -2.4035793739        0.5006070646
 C         -0.0390507638       -2.1856872564        0.7931055937
 C         -3.0743728094       -2.3707859605        0.5080092247
 C         -4.4687472881       -2.3272241635        0.5846387548
 C         -5.0946531099       -1.1378353804        0.2849965259
 C         -4.3001043826       -0.0016136164       -0.0033027683
 H         -5.0277707477        3.2118049863       -0.8336273040
 H         -2.5746456238        3.3145096123       -0.6625281244
 H         -0.4352755700        2.5192758062       -1.7400735646
 H          1.9162898770        2.9159935540       -1.2145962433
 H          5.0727372899        2.8890362536        2.6974145859
 H          6.3908874872        1.3841183806        4.1218490570
 H          5.9735221761       -1.0508803995        4.0806150402
 H          4.2213983154       -1.9629814525        2.5991842003
 H          2.9083901649       -0.4637348828        1.1694826827
 H          2.2676604877        4.6672852917        0.8003356479
 H          3.4557549309        6.5727452294       -0.2085035643
 H          5.7203502371        6.2683846591       -1.1429672832
 H          6.7896281993        4.0433090395       -1.0608784692
 H          5.5979445946        2.1352360607       -0.0633543883
 H          1.3931838163        0.9854901522        2.5679159661
 H         -0.9470878289        0.5479635006        2.0125019634
 H         -0.9510214260       -0.5585822285       -2.0166982418
 H          1.3910410969       -0.9914980105       -2.5702829506
 H          2.2593302697       -4.6623187954       -0.8298577807
 H          3.4357150704       -6.5840405485        0.1618207821
 H          5.6963955264       -6.2984253937        1.1118560212
 H          6.7730969600       -4.0759894293        1.0630069114
 H          5.5937697451       -2.1522142849        0.0804844289
 H          5.0977478495       -2.8708281958       -2.6756302294
 H          6.4159440043       -1.3546167626       -4.0868139128
 H          5.9748813207        1.0764240562       -4.0528261292
 H          4.1995245993        1.9727487507       -2.5898102511
 H          2.8879767562        0.4629698118       -1.1709239950
 H          1.9165395105       -2.9153873689        1.2150252312
 H         -0.4370751220       -2.5242877107        1.7385293110
 H         -2.5809120913       -3.3202232550        0.6607531083
 H         -5.0342414823       -3.2126639441        0.8303139172
  90
  -144.618687829600       0.329514012015419      !
 N        -10.9726878588       -1.4615675521       -1.3190327277
 C         -9.9620546140       -1.0763517702       -0.9386404106
 C         -8.7314914894       -0.5779819712       -0.4463841507
 N         -7.5988786274       -1.0703399061       -0.9600899819
 C         -6.4864013340       -0.5715184704       -0.4681807224
 C         -6.4883491771        0.4445681934        0.5539686245
 N         -7.6023734698        0.9248476575        1.0605740045
 C         -8.7332279870        0.4137168975        0.5616404877
 C         -9.9651323405        0.8931724490        1.0696044264
 N        -10.9755654804        1.2640864758        1.4635523062
 C         -5.1174744330        0.7779179437        0.8611856750
 C         -4.4974962222        1.6532576970        1.7230547267
 C         -3.1032539003        1.7307383040        1.6819006272
 C         -2.3090504661        0.9592675698        0.8431045350
 C         -0.8753886915        1.2649578272        0.7833776917
 C         -0.2621887812        1.5460260227       -0.4366434182
 C          1.0723672889        1.8795146080       -0.4985567879
 C          1.8469634555        1.9336951851        0.6639021056
 N          3.2028498411        2.2437406425        0.6116453984
 C          3.7004100001        3.1475655098       -0.3362347394
 C          4.9654095033        2.9548647230       -0.8905410572
 C          5.4628513739        3.8509952958       -1.8168305518
 C          4.7099096940        4.9452085626       -2.2103188675
 C          3.4534312348        5.1418465357       -1.6609869875
 C          2.9506969695        4.2564850029       -0.7270837538
 C          4.0827260390        1.6769771647        1.5469592460
 C          3.9395358173        0.3438296831        1.9264519278
 C          4.7951355167       -0.2102906435        2.8586529362
 C          5.8142970122        0.5480854934        3.4110921505
 C          5.9672825993        1.8709280458        3.0289799645
 C          5.1067150503        2.4376744809        2.1085034544
 C          1.2280555065        1.6702825252        1.8884823649
 C         -0.1111785095        1.3542469745        1.9447743408
 C         -2.9203171247       -0.0302715024        0.0170949429
 C         -2.3025883906       -1.0081972324       -0.8178565907
 C         -0.8623800410       -1.2855192144       -0.7779278159
 C         -0.1108478529       -1.3564300356       -1.9487904046
 C          1.2355768995       -1.6438214919       -1.9094961476
 C          1.8744171482       -1.8965311228       -0.6930491839
 N          3.2369727364       -2.1793897140       -0.6555855763
 C          3.7573696523       -3.0814713853        0.2820533595
 C          3.0330348866       -4.2107043292        0.6622651178
 C          3.5574423784       -5.0951746273        1.5849909923
 C          4.8104639966       -4.8766138834        2.1339056393
 C          5.5377617307       -3.7611942992        1.7518099997
 C          5.0186096021       -2.8661909246        0.8363755671
 C          4.0985075282       -1.5902431868       -1.5934465546
 C          5.1414571882       -2.3233323729       -2.1571132437
 C          5.9851663919       -1.7338452688       -3.0788844524
 C          5.7961596371       -0.4157667333       -3.4612800070
 C          4.7575706668        0.3148307731       -2.9076748027
 C          3.9191215818       -0.2615525893       -1.9734199590
 C          1.1131974289       -1.8611622316        0.4788816683
 C         -0.2286847832       -1.5557561016        0.4340278782
 C         -3.0941690325       -1.7951703180       -1.6445143103
 C         -4.4902203488       -1.7442020925       -1.6650284641
 C         -5.1140913122       -0.8802494826       -0.7945118086
 C         -4.3199005606       -0.0436191206        0.0274853601
 H         -5.0656014070        2.2865902188        2.3865291614
 H         -2.6118805514        2.4637839514        2.3060032477
 H         -0.8465983670        1.5160859662       -1.3442365733
 H          1.5236907878        2.1024209148       -1.4541138642
 H          5.5503472659        2.0967019288       -0.5948163465
 H          6.4432265974        3.6874091210       -2.2394224586
 H          5.1000869686        5.6410830058       -2.9370027042
 H          2.8626762531        5.9970243628       -1.9540647839
 H          1.9771886740        4.4226294587       -0.2893622012
 H          3.1519783838       -0.2484326497        1.4872762753
 H          4.6701648746       -1.2436813366        3.1466166548
 H          6.4841655855        0.1113114314        4.1357714917
 H          6.7563109906        2.4703002843        3.4582267951
 H          5.2196132863        3.4728337677        1.8216161151
 H          1.8067556163        1.7262219459        2.7982619145
 H         -0.5699940351        1.1505089139        2.9014441957
 H         -0.5859915268       -1.1619856243       -2.8994136588
 H          1.8043883915       -1.6859262952       -2.8262515163
 H          2.0622991540       -4.3930002758        0.2247898516
 H          2.9868151638       -5.9668610019        1.8691244852
 H          5.2179546534       -5.5720752785        2.8514323437
 H          6.5149342628       -3.5803788539        2.1748032547
 H          5.5834364335       -1.9918880351        0.5488809719
 H          5.2822491923       -3.3553568593       -1.8712485483
 H          6.7890735975       -2.3121622079       -3.5094479354
 H          6.4528449246        0.0386349913       -4.1872078095
 H          4.6043781371        1.3443717732       -3.1957830453
 H          3.1173278245        0.3099734113       -1.5326256539
 H          1.5811668522       -2.0763479778        1.4282046514
 H         -0.8024324587       -1.5392119138        1.3487393631
 H         -2.5981365772       -2.5186821735       -2.2760163159
 H         -5.0558325935       -2.3883516769       -2.3201673036
  90
  -144.618481355400       0.264840814316270      !
 N        -10.9909187574       -1.4449208479        1.3056970916
 C         -9.9787704052       -1.0424175575        0.9486920561
 C         -8.7455786045       -0.5227046199        0.4861745153
 N         -7.6147430351       -1.0792846041        0.9331139462
 C         -6.5009223281       -0.5544269494        0.4716664573
 C         -6.5001241943        0.5530587317       -0.4502900644
 N         -7.6128206532        1.0967137601       -0.8922133927
 C         -8.7447434321        0.5591738929       -0.4252594469
 C         -9.9764448734        1.1025464654       -0.8642231050
 N        -10.9880009009        1.5227945404       -1.2020152005
 C         -5.1285307705        0.8945121831       -0.7439567554
 C         -4.5072094469        1.8396462056       -1.5275349668
 C         -3.1119215915        1.8959114606       -1.4965095996
 C         -2.3183805556        1.0398762776       -0.7433079546
 C         -0.8807560931        1.3234239879       -0.6742683722
 C         -0.1305440644        1.5159275937       -1.8322863835
 C          1.2139343046        1.8062500949       -1.7652258594
 C          1.8544336665        1.9383348353       -0.5302616974
 N          3.2163614722        2.2139317786       -0.4693413499
 C          4.0686324636        1.7505968986       -1.4850843429
 C          3.9069916828        0.4693840101       -2.0078055683
 C          4.7371152063        0.0188868973       -3.0158177586
 C          5.7480371654        0.8302652004       -3.5043378447
 C          5.9193496845        2.1012828942       -2.9804270857
 C          5.0849246766        2.5648262215       -1.9813536765
 C          3.7578396253        2.9803264506        0.5714005167
 C          3.0527968562        4.0559059459        1.1100326837
 C          3.6012589818        4.8034114496        2.1344403812
 C          4.8597802864        4.5014634545        2.6285680554
 C          5.5688736004        3.4410856725        2.0882555728
 C          5.0250833066        2.6814566818        1.0707391713
 C          1.0925464387        1.7863040096        0.6323029145
 C         -0.2476142561        1.4795292921        0.5578508625
 C         -2.9326630798       -0.0166762807       -0.0068781305
 C         -2.3192334973       -1.0758834255        0.7265054357
 C         -0.8816419122       -1.3600512332        0.6560107927
 C         -0.2461286272       -1.5110297199       -0.5755460770
 C          1.0963176780       -1.8087270585       -0.6490442150
 C          1.8577843780       -1.9573843420        0.5140741928
 N          3.2228617498       -2.2198617986        0.4546294280
 C          3.7708989148       -2.9849848364       -0.5835697514
 C          5.0342747129       -2.6761479975       -1.0865947408
 C          5.5838214968       -3.4354553153       -2.1013451897
 C          4.8845819038       -4.5057260906       -2.6349067701
 C          3.6297500415       -4.8173763793       -2.1373193717
 C          3.0754234374       -4.0698700969       -1.1160933946
 C          4.0693605090       -1.7417711903        1.4680848854
 C          5.1021128950       -2.5365440051        1.9620983340
 C          5.9280145615       -2.0581500219        2.9613267690
 C          5.7319745149       -0.7918930244        3.4881841662
 C          4.7055632768        0.0006353146        3.0010802539
 C          3.8843366892       -0.4642925285        1.9924266260
 C          1.2143803321       -1.8344160683        1.7484128637
 C         -0.1318088010       -1.5519553864        1.8144970342
 C         -3.1134538314       -1.9285909191        1.4827834326
 C         -4.5082424728       -1.8630522313        1.5242048735
 C         -5.1295060347       -0.9121041028        0.7476453126
 C         -4.3325795672       -0.0123458799       -0.0020378739
 H         -5.0746506818        2.5391711725       -2.1213940932
 H         -2.6178622485        2.6785726133       -2.0547616460
 H         -0.6047790012        1.4135008943       -2.7976397964
 H          1.7801725663        1.9432770248       -2.6742079478
 H          3.1260643365       -0.1643024191       -1.6176744843
 H          4.6000120466       -0.9761926040       -3.4124808949
 H          6.3977030506        0.4746088937       -4.2892626416
 H          6.7019299525        2.7415992176       -3.3592364707
 H          5.2119165501        3.5603308277       -1.5820990079
 H          2.0784684253        4.3054111819        0.7159251033
 H          3.0449884468        5.6342791706        2.5423771333
 H          5.2856142031        5.0902173786        3.4264610901
 H          6.5501884024        3.1958870969        2.4666855085
 H          5.5753332125        1.8478661729        0.6604321947
 H          1.5574210157        1.9111545490        1.5990121873
 H         -0.8205651998        1.3717156025        1.4668363752
 H         -0.8185187614       -1.4049960657       -1.4850877500
 H          1.5636232456       -1.9273673739       -1.6154095110
 H          5.5770350689       -1.8350189812       -0.6816487091
 H          6.5620043325       -3.1823415056       -2.4828169252
 H          5.3151428040       -5.0946135988       -3.4301746113
 H          3.0813078664       -5.6561120033       -2.5397749689
 H          2.1040951653       -4.3267416423       -0.7192350131
 H          5.2487952539       -3.5288094236        1.5613926523
 H          6.7235754080       -2.6835543753        3.3382256629
 H          6.3742218428       -0.4254838336        4.2742884770
 H          4.5485384860        0.9918553882        3.4000490265
 H          3.0908160405        0.1545338188        1.6040126913
 H          1.7802080197       -1.9706131897        2.6577854574
 H         -0.6075859780       -1.4546876856        2.7795926181
 H         -2.6208602220       -2.7146820735        2.0375038464
 H         -5.0752984234       -2.5593441146        2.1223051044
