81
 energy: -130.071934738413 gnorm: 0.000041267377 xtb: 6.7.1 (edcfbbe)
N           -7.69956687905963        1.94838510545204       -0.55836352484011
C           -6.72086876840007        1.38631336053050       -0.28532784711028
C           -5.53553625286176        0.74384772777935        0.00115054065232
C           -4.52487497547391        1.31368227307350        0.85101979512231
C           -4.79431046817618        2.49184675294750        1.68128925973099
C           -6.03489087358139        2.69833943918895        2.28111353261203
C           -6.24841168821461        3.81316575131110        3.07050743977019
C           -5.23289846087987        4.73443474007503        3.27005915198158
C           -3.99275127064101        4.53007403889141        2.68507626686569
C           -3.77109478580681        3.41586917574798        1.90032514080301
N           -3.33250187622188        0.80127042056108        0.91645835378135
C           -2.98874797514336       -0.30205791722116        0.21603879699720
C           -1.66460203886390       -0.81352899878194        0.29325101978387
C           -1.29071224447364       -1.96749747604710       -0.42546887437858
C           -0.00586261802050       -2.44712931831359       -0.36685122959005
C            0.95520093307957       -1.78795270745374        0.40624959734722
N            2.26496463653414       -2.28784970477100        0.49599812274050
C            2.56478534919387       -3.53202581072970        1.03478291226409
C            1.71133333384501       -4.56020626879335        1.39748472548340
C            2.27729881597635       -5.70766388083969        1.93276525425407
C            3.65107979674090       -5.82136160013429        2.11370200118925
C            4.50456402083099       -4.78414777710640        1.77409691659963
C            3.95913492843114       -3.62970630576800        1.23165535137135
C            4.51859125193752       -2.37781538801894        0.80007024752266
C            5.82221873032078       -1.89965819750845        0.80606282078099
C            6.07839665382413       -0.61792583439408        0.35685949360811
C            5.02010939154433        0.14339008807331       -0.13913776232557
C            3.68635451237111       -0.32860749478606       -0.22804296698266
C            2.94919149960813        0.67767169571415       -0.94041902511493
C            1.65329399668735        0.77709451155245       -1.44186429060991
C            1.27836514419616        1.92908294202418       -2.10173209132356
C            2.16818150819154        2.99115997653580       -2.27852404400942
C            3.47013304727745        2.90597261969305       -1.83549829953657
C            3.86395504298882        1.73548580925953       -1.19444350601150
N            5.09787024943152        1.39985156084530       -0.70111804700039
C            6.25582948415674        2.19561123558856       -0.76691495469932
C            6.68428012427573        2.70547241327763       -1.98874686380736
C            7.81719433874961        3.49717209762136       -2.04360668358677
C            8.53042156708754        3.77727462162631       -0.88913463479474
C            8.10735356418118        3.26358195817801        0.32626656027364
C            6.97218971350002        2.47628160014865        0.39294811044091
C            3.42649248172903       -1.58868819667111        0.32979790852046
C            0.59552757677308       -0.64927431371583        1.13718929271381
C           -0.68846016245043       -0.17146398286158        1.08281571102894
N           -3.92037993839822       -0.92843739284648       -0.53549315596800
C           -5.13559985315134       -0.47999424106073       -0.64126619381953
C           -6.07499143106086       -1.26231541957320       -1.45004532653637
C           -7.42211590296859       -1.36719732126236       -1.10917011594692
C           -8.27935183839904       -2.12260700318066       -1.88748809302901
C           -7.80787178833816       -2.77939313429312       -3.01275151838335
C           -6.46618326418233       -2.69057436222772       -3.35061841702501
C           -5.60366855600630       -1.94247657669965       -2.57432375835692
H           -6.82864532619196        1.97854929658809        2.14387380008200
H           -7.21399295462146        3.96068876164200        3.53152563001883
H           -5.40737023725288        5.60684514724612        3.88199751131848
H           -3.19615835060547        5.24289555544965        2.84058772572273
H           -2.81037729679945        3.24815464240605        1.43662137880957
H           -2.03906305436114       -2.46091780260166       -1.02652944753741
H            0.28001263153774       -3.31871989685938       -0.93754031534623
H            0.64278911811105       -4.47201317916045        1.27612241755771
H            1.63460909716429       -6.52687138388559        2.21857605501381
H            4.05581327418700       -6.73038125311641        2.53281471517557
H            5.56890328318812       -4.87018443955314        1.92996592697297
H            6.62498908740885       -2.52343098343480        1.16549324783781
H            7.08124968190172       -0.22123367984033        0.35776833041385
H            0.94920778201365       -0.02882264390921       -1.32980402823887
H            0.27269682295113        2.01308164057127       -2.48662165217430
H            1.83193759710985        3.88613898891671       -2.78024532948507
H            4.16405250509921        3.71944331455796       -1.98014198166310
H            6.13601931642082        2.46723355997017       -2.88787861698441
H            8.14782922387059        3.89067005175523       -2.99319015372870
H            9.41466062692374        4.39463144438149       -0.93672914413793
H            8.65901205568722        3.48238455374937        1.22831089374960
H            6.62640667576162        2.08970802910264        1.34007020600389
H            1.33923279950863       -0.15782848129905        1.74698350453719
H           -0.97998402611887        0.69987615345781        1.64851634218275
H           -7.79653089626812       -0.87094880491422       -0.22569825278999
H           -9.32102609486686       -2.19681681240701       -1.61180968943221
H           -8.48355979936597       -3.36129884091780       -3.62171010267998
H           -6.09225172592973       -3.20468131314134       -4.22393361936801
H           -4.55774011703915       -1.86234374484447       -2.83029676242829
