81
 energy: -130.071902226787 gnorm: 0.000071649472 xtb: 6.7.1 (edcfbbe)
N           -7.71041655873305        1.97445180959447        0.58276045069852
C           -6.72554519839379        1.42637955635413        0.30345774337510
C           -5.53646985769131        0.79343169267192        0.01109050949862
C           -5.16117428169522       -0.46532419598920        0.59779219879181
C           -6.12415961922262       -1.27750937988984        1.34813625789711
C           -5.68463458839335       -2.00678211063941        2.45410455402845
C           -6.56951692267729       -2.78463285352057        3.17407743360114
C           -7.90160356222440       -2.85470113825637        2.79640726796647
C           -8.34114537124076       -2.14904691037013        1.68792451245713
C           -7.46160621234775       -1.36313854895579        0.96671606238496
N           -3.94879161472796       -0.92143294648050        0.49416898061155
C           -2.99706223690184       -0.26987553750755       -0.21019159525481
C           -1.67854342037099       -0.79462043815690       -0.29283998732588
C           -0.69033299288000       -0.14555914235749       -1.06150567288634
C            0.58761934369784       -0.63849800786477       -1.12235248402268
C            0.93058199141082       -1.79739693143288       -0.41519148787014
N            2.23302087809531       -2.31349993272276       -0.51134845882189
C            2.51452652193579       -3.56142473517178       -1.05232015450778
C            1.64689805658598       -4.57700802527785       -1.41718632065166
C            2.19661171134800       -5.73182396966780       -1.95360493975174
C            3.56860386605729       -5.86502235037232       -2.13449549200613
C            4.43634757439036       -4.83983172070095       -1.79469716469843
C            3.90709217414858       -3.67844498183131       -1.25110531133470
C            4.48462895347518       -2.43463159417609       -0.82028708388616
C            5.79463825285402       -1.97448616851672       -0.83131877551444
C            6.06968226716622       -0.69557940261569       -0.38537074279038
C            5.02357796691024        0.08020306404692        0.11394942099744
C            3.68442252338168       -0.37475085502125        0.21109709232364
C            2.96465488618802        0.64141673949530        0.92719949259851
C            1.67417805205043        0.75637905087047        1.43930968175589
C            1.31720781984899        1.91464410492609        2.09817599730655
C            2.21998141128747        2.96752926288041        2.26395001832675
C            3.51770318513498        2.86599945434192        1.81202733765962
C            3.89361554611424        1.68893925370692        1.17228915899082
N            5.12029554953660        1.33700631219278        0.67223195989308
C            6.28781550007969        2.11950211172573        0.72611120102059
C            7.00012809121295        2.38459903799899       -0.43993630706185
C            8.14452810095265        3.15933544236343       -0.38537002796864
C            8.58088124613472        3.67612211932231        0.82400661770654
C            7.87180480387985        3.41142089653024        1.98463964481351
C            6.72980616268275        2.63211126567816        1.94194602921415
C            3.40482110034523       -1.63088039242586       -0.34650832235372
C           -0.04201390205787       -2.46085602377585        0.33999827531161
C           -1.32198142459413       -1.96908152498549        0.40108847265958
N           -3.31410160825177        0.87432451272309       -0.85446049306556
C           -4.50020780820716        1.40033278665217       -0.78099405595896
C           -4.73118480960541        2.63852605699489       -1.53141583186683
C           -3.68458110563604        3.55300164055329       -1.66442920386525
C           -3.87029321732813        4.73070678347840       -2.36056947283869
C           -5.09693863515641        5.00888701592376       -2.94369824509189
C           -6.13421734962925        4.09692370783487       -2.83326594845235
C           -5.95666570093118        2.91822313736316       -2.13263347963982
H           -4.64589326277095       -1.94089819837536        2.74163702435060
H           -6.22057838147421       -3.33715282056910        4.03417840785747
H           -8.59463350850429       -3.46021339426187        3.36125261220252
H           -9.37497820592761       -2.20885820503220        1.38087912821297
H           -7.81039154647121       -0.82770367825048        0.09570700804603
H           -0.96833184366599        0.74246162984523       -1.60776543097230
H            1.33933399401071       -0.14315075643357       -1.71896107258856
H            0.57955231445400       -4.47423721124398       -1.29729282386379
H            1.54233097123299       -6.54152380439263       -2.24024449277728
H            3.96051338529432       -6.77944961126755       -2.55400266461594
H            5.49933847268122       -4.94017378692271       -1.95119167037428
H            6.58747846510155       -2.60956116682542       -1.19295787243624
H            7.07763295000635       -0.31209083134768       -0.39127842549562
H            0.96070231501322       -0.04253945559840        1.33639348735618
H            0.31568732520447        2.01102509463561        2.49087052193947
H            1.89747634941547        3.86812649856770        2.76465023976792
H            4.22175834655123        3.67209363072548        1.94882780404201
H            6.64415147102959        1.99598087375964       -1.38242929620713
H            8.69309660960127        3.36584860983351       -1.29218873748496
H            9.47227338306792        4.28378298794437        0.86214985960366
H            8.21271625572587        3.80728536158333        2.92958759510149
H            6.18478075889620        2.40564071961950        2.84606007885783
H            0.23129255126857       -3.34603936073606        0.89564489532197
H           -2.07908085662046       -2.46713617689762        0.98713609658039
H           -2.73520942156282        3.32759820001921       -1.20171737411661
H           -3.05641184359611        5.43547297901184       -2.44824263239551
H           -5.24388957005932        5.93161743653562       -3.48496161908097
H           -7.08887461577232        4.30155219709312       -3.29519117134057
H           -6.76738350395411        2.20766957822502       -2.06469510876537
