81
 energy: -130.142712028029 gnorm: 0.000129962624 xtb: 6.7.1 (edcfbbe)
N           -7.65061713657594        1.98803630518139        0.56663864670821
C           -6.68870621470283        1.43092672230266        0.26980830153087
C           -5.47838287726645        0.78328993307551       -0.01946731975682
C           -5.15942115043466       -0.47248330671993        0.54412915198227
C           -6.13789930483029       -1.27712279313913        1.28236952507088
C           -5.71782722820085       -2.00161499853464        2.39725244734723
C           -6.62007782653960       -2.76685628552425        3.11039735194532
C           -7.94551826361166       -2.83104605485937        2.70971151786429
C           -8.36433037887724       -2.13264979598752        1.58871441409063
C           -7.46815137126529       -1.35677129084152        0.87669302145297
N           -3.93948573311258       -0.97238881551528        0.43557006893616
C           -3.01937046270513       -0.27970747799325       -0.23305943912816
C           -1.66787141863781       -0.82177824446687       -0.29090087886585
C           -0.67100282949513       -0.15881834423932       -1.01044486560716
C            0.61025180948531       -0.66220373624052       -1.04998836791214
C            0.92246327158947       -1.84058453222784       -0.36854569304225
N            2.21667764066702       -2.36327919013057       -0.43490379858497
C            2.50597466682571       -3.61245070653091       -0.96682188550519
C            1.65153507445808       -4.65138099428101       -1.30294808287411
C            2.20765279001587       -5.79506817853049       -1.84645670212670
C            3.57896670189167       -5.90331121052304       -2.06440136395875
C            4.43013136167999       -4.85979650812844       -1.75877592298894
C            3.89364107982982       -3.70213385754999       -1.20923226682538
C            4.46226382896031       -2.44449323178389       -0.81365413606685
C            5.77299318320179       -1.96896881438976       -0.85786614094688
C            6.04452140433072       -0.68858791353737       -0.43503846672065
C            5.00272309512670        0.07919662639292        0.08682105505951
C            3.67218143745984       -0.39278553312275        0.21729418372333
C            2.95388151322445        0.62075106760945        0.94402349006385
C            1.67651504691232        0.71971027509672        1.48950975132161
C            1.31503292310183        1.87730081059439        2.14912511782245
C            2.20273132804241        2.94275298353335        2.28067165397168
C            3.49267008923701        2.85414179094170        1.79732396216847
C            3.87017687522089        1.68041125942881        1.15963420624706
N            5.09493973573899        1.34103488078646        0.63220329268975
C            6.25228783774455        2.13879569387755        0.66241676861005
C            6.93982375517928        2.41348110689490       -0.51588749159614
C            8.07583834939981        3.20181220460798       -0.48398639773546
C            8.52780258125834        3.72719536529592        0.71562160140796
C            7.84330949853620        3.45511192592795        1.88889948796616
C            6.71215067601366        2.65918837294762        1.86810948646840
C            3.39807409590554       -1.65201000036258       -0.32762563991154
C           -0.07228049871968       -2.50979307914814        0.34525860926967
C           -1.35375994569001       -2.00367489227104        0.38339337675918
N           -3.25569793519402        0.87017687081025       -0.86082938276623
C           -4.46156517773612        1.40780051218199       -0.77626099411485
C           -4.66941376852368        2.67262289705853       -1.48764492430672
C           -3.62213710119432        3.59105500490179       -1.55638514548246
C           -3.79220262338682        4.79177020297398       -2.21789397319855
C           -5.00086031453422        5.08198487623057       -2.83148525255473
C           -6.03744430975766        4.16366292366596       -2.78728859226887
C           -5.87646974395231        2.96363670777341       -2.11937096985656
H           -4.68291247355341       -1.94015046149220        2.69769026505913
H           -6.28953777845477       -3.31535435821952        3.97976239791750
H           -8.65065758856012       -3.42998789580128        3.26624693332784
H           -9.39255313369094       -2.19186222687509        1.26467398421333
H           -7.79723075064789       -0.83147328472761       -0.00831030503672
H           -0.92462999642415        0.74659448977971       -1.53842965147568
H            1.38224143259055       -0.15196576787414       -1.60546604777019
H            0.58471906948915       -4.57374123511924       -1.15940356076202
H            1.56269149051266       -6.62018040712370       -2.11130373835886
H            3.97644802312876       -6.81395633467957       -2.48830415241339
H            5.49082682123814       -4.93657465988304       -1.94531242251965
H            6.56249866355620       -2.60308655578693       -1.23041984833978
H            7.04687575131217       -0.29122655899711       -0.47245090889096
H            0.97608476697844       -0.09523692059370        1.42026867661943
H            0.32334436313960        1.95859213627847        2.57057562323100
H            1.88246849033153        3.84384146067471        2.78306222166918
H            4.18870744711292        3.67097611101062        1.91416249936261
H            6.57373617511165        2.01530624472370       -1.45071467597922
H            8.60562000786710        3.41248114500071       -1.40134455491354
H            9.41197072061802        4.34655287029274        0.73636451172819
H            8.19573619726735        3.85766686679029        2.82714132183652
H            6.18592765647190        2.42858302460973        2.78255863486281
H            0.17614500685236       -3.40947079441843        0.88761582769616
H           -2.12926710104086       -2.50745624416729        0.93860073082739
H           -2.68747553268380        3.35132055902548       -1.07243330165798
H           -2.98024000659645        5.50241997869924       -2.25668323749364
H           -5.13376112966314        6.02041430706558       -3.34858919756845
H           -6.97566730131454        4.37933637748583       -3.27607591252462
H           -6.68190152280820        2.24358380919947       -2.10845588421661
