78
 energy: -130.054203880546 gnorm: 0.000065247306 xtb: 6.7.1 (edcfbbe)
C           -3.84315720002398        3.96678616902689        2.00628226463180
C           -4.45264903672484        2.90071224460257        1.37055479090490
C           -3.73761944875577        2.15522246929450        0.43567512396553
C           -4.33669645507511        0.98542717449879       -0.18680336626526
N           -3.68729513953833       -0.11722793633783       -0.46269204181701
C           -4.61046637796227       -0.98611444266867       -0.98737892827053
C           -4.46571791096854       -2.29558767056988       -1.43427190923777
C           -5.59273371267621       -2.93110293715672       -1.90923286948735
C           -6.83652613645595       -2.29586827681626       -1.94692114618173
C           -7.00129445964021       -0.99802699346465       -1.50692052269204
C           -5.87415730745798       -0.35354303206121       -1.02457609539171
N           -5.66478418824565        0.89629974551772       -0.49946050696714
C           -2.42137397439967        2.49489292960245        0.13067447463784
C           -1.79625874361853        3.54577675977928        0.79090507189263
C           -0.39469719251702        3.94809408856504        0.57898909321504
N           -0.14390198276536        5.20898688897314        0.96158354129734
N            1.02316975705270        5.72821976967357        0.87285756776231
N            2.05531518733542        5.02733073402396        0.56137758601370
C            1.92904527396676        3.75928149814301        0.17576781116292
C            3.17795041400300        3.05712757093173       -0.13893399403703
C            4.22943178725461        3.78133090205688       -0.69968998611977
C            5.41006836310314        3.14241780325470       -1.03526431349963
C            5.54698276926876        1.78127456585098       -0.84429537921785
C            4.50641795890960        1.04386247734935       -0.27509890599309
C            4.65412601277160       -0.39234813153662       -0.12864011621674
N            5.80066606629053       -1.02058022311493       -0.19950607585600
C            5.51297520624553       -2.34957537323875       -0.06243969649249
C            6.34650279109568       -3.46538589760840       -0.06172512826389
C            5.75504986932489       -4.70149024254876        0.08080565870408
C            4.37035463265523       -4.84829698166414        0.21854847363737
C            3.52281409538886       -3.76008539466607        0.22440912066051
C            4.11474949122143       -2.51470603841172        0.08728442938441
N            3.59672970168891       -1.24977181768584        0.05222273606980
C            3.33943026306215        1.69674486224722        0.10676803392347
C            0.64742535539567        3.17193642300599        0.04706940308215
C            0.55415224915711        1.86807548163757       -0.62624499128253
C            1.08662248796906        1.75201335189661       -1.90994617310117
C            1.18501126141662        0.51425016417859       -2.51774763827673
C            0.75486981920533       -0.62123431179557       -1.85641212384236
C            0.17438315141544       -0.50992417037494       -0.59527816141906
C           -0.34069942238186       -1.69546311613068        0.08322801513046
N            0.33235411304019       -2.79148077875124        0.31636954401924
C           -0.54782449356719       -3.63020043395296        0.95145963084100
C           -0.37820849411274       -4.92502364168745        1.42964149242223
C           -1.46852828714709       -5.53816586174802        2.00868775578896
C           -2.70410033283584       -4.89481251540102        2.11870516077979
C           -2.89294011255185       -3.60761587033353        1.65929995268420
C           -1.80118629313716       -2.98093118049402        1.08020426989810
N           -1.62582585062959       -1.73641315311016        0.53876545875754
C            0.07597827665214        0.73300526099602        0.01916684201485
C           -2.52756523761422        4.28086342100999        1.72973045249330
H           -4.39330552972041        4.54702191124208        2.73148357397077
H           -5.46880064665848        2.63061174134682        1.61987823416573
H           -3.50788565571781       -2.78963710322684       -1.40663394963440
H           -5.51692272829247       -3.94838337807318       -2.26219490244730
H           -7.68949854872767       -2.83617759748341       -2.32864706900294
H           -7.96290801737363       -0.50828013617487       -1.53441488128229
H           -6.34726335861339        1.62955538869135       -0.40688156982073
H           -1.91821822963290        1.93121092005395       -0.63711555681583
H            4.10143999152539        4.83947167605346       -0.86686425347497
H            6.22223448459119        3.71103885187743       -1.46272445061017
H            6.44852088214908        1.25938901065893       -1.12236775016061
H            7.41332211211278       -3.35361792905456       -0.17147179589964
H            6.37344990892584       -5.58756103831266        0.08429745386543
H            3.95988455885017       -5.84234730836431        0.32135579201999
H            2.45189980948103       -3.84889786662251        0.32261706991268
H            2.61463250873077       -1.03094604295560        0.08250834835491
H            2.56750870057655        1.14874065536950        0.62418592991787
H            1.43801890755249        2.63649217221885       -2.42107714805177
H            1.61275267072434        0.43554885778038       -3.50538377568382
H            0.85150356162013       -1.59712371708857       -2.30592384855279
H            0.57342621896600       -5.42527138318897        1.34372001377865
H           -1.37158277613246       -6.54502616390875        2.38744449374704
H           -3.52960088000860       -5.42058459213473        2.57554275265940
H           -3.84700127821899       -3.10790550600991        1.73986263994238
H           -2.34802782943017       -1.04528054888054        0.31667679500554
H           -0.33470031878512        0.80844157992691        1.01648391812401
H           -2.04155786003761        5.10247281102944        2.23127354285338
