78
 energy: -129.993926868952 gnorm: 0.000076682455 xtb: 6.7.1 (edcfbbe)
C           -4.10959850446611        4.29435867036767        1.43161055568289
C           -4.65794282928568        3.13010825443803        0.91650024293701
C           -3.82263800206109        2.21598503008846        0.27047201441336
C           -4.35796866463802        0.97575016681584       -0.26504129888167
N           -3.69349355800436       -0.14883936293394       -0.37786234504043
C           -4.56863335661628       -1.05997047014104       -0.91507679724433
C           -4.39313702625732       -2.39956535186808       -1.24806217127336
C           -5.47556628802541       -3.07194255160919       -1.77430213104406
C           -6.70731624096107       -2.44520006056368       -1.97496657015418
C           -6.90165216775572       -1.11618018090309       -1.65685030863930
C           -5.81930125306836       -0.43497100648951       -1.12571131980290
N           -5.65024686999597        0.85524045395856       -0.69637870669679
C           -2.46435315535964        2.47163199117561        0.14557582280765
C           -1.88836078688860        3.62379961714098        0.70220217879814
C           -0.48852621432503        3.92193069443839        0.70137156824920
N           -0.16803681531115        5.17907114851548        1.25291044236660
N            1.00532090399446        5.52084565374632        1.31747650976412
N            2.06879216782394        4.96897030913265        1.00759568874642
C            1.93111801597048        3.67745081423732        0.45841104461355
C            3.18075504490175        3.01727831599574        0.13985259458081
C            4.27914619746208        3.78486596829068       -0.26587216633479
C            5.46926576017892        3.17421332454268       -0.61078904641811
C            5.59072059893111        1.79715869209679       -0.57031761919409
C            4.51462063062809        1.01535033147094       -0.14097916012775
C            4.65084444113782       -0.42893847435834       -0.11772931782169
N            5.79629542864378       -1.05780707897463       -0.22666939194374
C            5.50781667272128       -2.39072884069367       -0.18546813411516
C            6.33804290283366       -3.50748703957690       -0.25369960414755
C            5.74215994461757       -4.74814503430777       -0.19573318812287
C            4.35607004628993       -4.89893079242038       -0.07461241228781
C            3.51175819156791       -3.80986700375782       -0.00351302461811
C            4.10727305383489       -2.56044476576761       -0.05572392182926
N            3.59277982221441       -1.29447520961189       -0.00906367831974
C            3.33158025849565        1.63222933873947        0.24449748055896
C            0.64341481693581        3.18465266372671        0.26729006631935
C            0.55087269414915        1.90874473986010       -0.47621566949203
C            1.04921590807544        1.85493423507118       -1.77425779008517
C            1.13403694300448        0.64357384056902       -2.43786175631659
C            0.71805142324265       -0.52037399165225       -1.81910149971896
C            0.17161849793169       -0.46667484248758       -0.53930480121109
C           -0.32470849948953       -1.67578544040710        0.10992066448323
N            0.35925576252522       -2.77649604907310        0.28737326994097
C           -0.49550976484688       -3.63468495417922        0.93081879573543
C           -0.30696963806449       -4.94281484173028        1.36401469371581
C           -1.37359264600449       -5.57422495639458        1.96672033532226
C           -2.60381168892425       -4.93539785281820        2.14448084739810
C           -2.81068309858071       -3.63566258486924        1.73087739364829
C           -1.74326625638934       -2.99083641798006        1.12610325047862
N           -1.59116701478256       -1.73119603653377        0.61249369807184
C            0.09250906960720        0.74788207525846        0.13309791223542
C           -2.75975358842236        4.53775864436875        1.33507700247901
H           -4.74809314326808        5.01140744943010        1.92645904732585
H           -5.71097896248315        2.92584477126851        1.04133597406145
H           -3.44598483505260       -2.89277689913542       -1.10151322267240
H           -5.37137380941238       -4.11305348372813       -2.04039597694508
H           -7.52506891763119       -3.01491622060347       -2.38987315621073
H           -7.85234584301718       -0.62908251336640       -1.81363809308717
H           -6.33272562670943        1.59308385590887       -0.73248406133980
H           -1.87493106904366        1.76273773184779       -0.40742892430065
H            4.17565930898814        4.85806585005713       -0.30774107666790
H            6.30806899475919        3.77812385186307       -0.92349585901330
H            6.50568318123113        1.30156436144065       -0.85142158307949
H            7.40595351773241       -3.39230502155508       -0.34789357763187
H            6.35789338979558       -5.63449906945063       -0.24569461617850
H            3.94223176623611       -5.89602214397498       -0.03693028650951
H            2.44002745833022       -3.89951508032671        0.08613595783602
H            2.61063536135997       -1.07802198351562        0.03995233585341
H            2.53243008163873        1.03904817259124        0.65738050041351
H            1.38816001483041        2.76151960757775       -2.25267985780386
H            1.53678815483080        0.60939513584771       -3.43850170581321
H            0.79838613744567       -1.47422507894154       -2.31680507885142
H            0.64090769896367       -5.43903759485831        1.22718748804323
H           -1.26185179018776       -6.59183707104375        2.31117033521894
H           -3.41053437282518       -5.47521748816793        2.61807482798904
H           -3.76039717779708       -3.13951849678020        1.86401143099321
H           -2.32778732493454       -1.04297223274080        0.42364841102832
H           -0.28989878400129        0.77998229819268        1.14352411205499
H           -2.34039207611527        5.43803694390288        1.75528980265132
