  85
       -138.59295365
 F         -3.5720050153       -4.7593945735        0.1745358997
 C         -2.3068353838       -4.3577198174        0.4338731741
 F         -2.3330657216       -3.8497656138        1.6782560800
 F         -1.5769891064       -5.4868890918        0.5076123476
 C         -1.7925579872       -3.3956549114       -0.5923003451
 C         -1.3179675413       -3.8941165433       -1.8062817718
 C         -0.8531458252       -2.9973822649       -2.7607014517
 C         -0.8627740973       -1.6424829852       -2.5182654536
 C         -1.3420014482       -1.1416220283       -1.2935440906
 N         -1.3702652565        0.2211013203       -1.0578011527
 C         -0.3189230243        1.1503003201       -1.2530660032
 C          1.0302973885        0.9095268998       -1.5561210891
 C          1.6714240181       -0.3577549395       -1.5940411983
 C          3.0154947860       -0.4547515705       -1.8290757988
 C          3.8098348924        0.6854685704       -2.0131765184
 O          5.1416993861        0.4771102353       -2.2043377992
 C          6.0414938104        1.4813504571       -1.7772581967
 C          5.9041823049        1.7355940481       -0.2732955812
 C          6.1988564805        0.4627573209        0.5227321131
 C          5.4274289667        0.4085785031        1.8475645687
 N          4.0364031079        0.0940648726        1.6577063266
 C          3.5550590532       -1.1755522291        1.4354085030
 C          4.2454635620       -2.3669298307        1.2578477390
 C          3.5081444687       -3.5165294232        1.0443835597
 C          2.1152990111       -3.4944952619        1.0165448921
 C          1.4220451819       -2.3158076038        1.2063322293
 C          2.1410877519       -1.1463039368        1.4098379687
 C          1.7627051856        0.2202559165        1.6254565683
 C          0.5374679206        0.8608049869        1.7362584501
 C          0.5195040211        2.2237688077        1.9566139815
 C          1.7065248442        2.9436521077        2.0601264028
 C          2.9392520019        2.3251524460        1.9707755343
 C          2.9673765487        0.9528412265        1.7597082041
 C          3.1941209486        1.9481650654       -1.9794380155
 C          1.8509989128        2.0542440875       -1.7609985570
 N         -0.7539264140        2.3910377336       -0.9674836393
 C         -1.9870037844        2.3066066062       -0.5083693043
 C         -2.7286351550        3.5031094120       -0.1764383484
 C         -2.0165193847        4.6318486433        0.2456367183
 C         -2.6772762707        5.8002200303        0.5606521127
 C         -4.0585674302        5.8727129449        0.4456267614
 C         -4.7699345010        4.7710536497       -0.0038657729
 C         -4.1171987123        3.5947589532       -0.3158754602
 C         -2.4254001167        0.9305384062       -0.5128656734
 C         -3.6806090059        0.3879692660       -0.1174630067
 C         -4.3099445241       -0.6599966559       -0.8238843762
 C         -5.5207064939       -1.1591783184       -0.4038163471
 C         -6.1428824315       -0.6507027423        0.7310849605
 C         -5.5408026131        0.3866056328        1.4352208705
 C         -4.3357867494        0.9043646785        1.0222241901
 C         -1.8168762916       -2.0409825135       -0.3293683444
 H         -1.3143788659       -4.9553810046       -1.9915306674
 H         -0.4905839749       -3.3692682424       -3.7064176649
 H         -0.5147918123       -0.9471034505       -3.2664679775
 H          1.1222824932       -1.2575533583       -1.3846434163
 H          3.4983912603       -1.4197208212       -1.8368778248
 H          5.8982718767        2.4105155457       -2.3421419030
 H          7.0309408186        1.0818440858       -2.0138730683
 H          6.5760777230        2.5434487103        0.0192580205
 H          4.8782830154        2.0517808835       -0.0761659316
 H          5.9037029410       -0.4005924496       -0.0758754340
 H          7.2682851893        0.3854396583        0.7247452418
 H          5.5032306800        1.3658382562        2.3678956062
 H          5.8669562445       -0.3623091635        2.4901050676
 H          5.3239740940       -2.4065472312        1.2835400470
 H          4.0232684690       -4.4545837518        0.8985315348
 H          1.5739144915       -4.4139055872        0.8495483863
 H          0.3436008913       -2.3015528846        1.1959711995
 H         -0.3806008024        0.2974301972        1.6669223467
 H         -0.4229057770        2.7411683625        2.0518280440
 H          1.6637702130        4.0101175457        2.2254757388
 H          3.8463104645        2.9033117270        2.0713108499
 H          3.7751262357        2.8435844265       -2.1395646492
 H          1.3715853636        3.0187445271       -1.7365720861
 H         -0.9431271640        4.5577281840        0.3242421453
 H         -2.1188398494        6.6611410810        0.8979533088
 H         -4.5764719289        6.7868811869        0.6944612229
 H         -5.8424175876        4.8315198924       -0.1176920029
 H         -4.6765262026        2.7541761031       -0.6951333130
 H         -3.8605682053       -1.0376177465       -1.7289512105
 H         -5.9923219559       -1.9529523443       -0.9643397255
 H         -7.0859711261       -1.0573316454        1.0614466408
 H         -6.0173938138        0.7826001547        2.3200178324
 H         -3.8579799057        1.6884079482        1.5893353530
 H         -2.1813031886       -1.6781753256        0.6185972225
