129
 energy: -198.104404030144 gnorm: 0.000056845851 xtb: 6.7.1 (edcfbbe)
C            4.57388652336342        3.55121224367144       -4.29869451484337
C            5.23631059013531        2.48660934946639       -3.70556009369170
C            5.41747996598368        2.43938439317272       -2.32936007514086
C            4.92346902489073        3.47492649236832       -1.56613701464438
C            4.25176838140818        4.55343978653962       -2.16029970148249
C            4.07445004175728        4.59372242424494       -3.53389395698397
C            3.85345424618554        5.48193690566111       -1.11325570385796
C            3.17353250673974        6.68776491472615       -1.17150708802520
C            2.93153986898543        7.37146829214344        0.00968829648821
C            3.35892959172888        6.86255661743641        1.22724580917758
C            4.04091658724411        5.65429273258809        1.29326085356054
C            4.28345264729266        4.97180557295385        0.12084028664953
C            4.99790512389678        3.65508184289325       -0.06770372022512
C            6.41346288210550        3.65057017108684        0.45993825125255
C            7.45352611855896        4.49086713476957        0.12759226893555
C            8.68349647919074        4.29790512661364        0.74347764759225
C            8.86219277486106        3.28127355303355        1.67010023611605
C            7.81867058280840        2.43334908933800        2.00626770470027
C            6.58815058229459        2.62128751944908        1.39734641128493
C            5.32661492408278        1.91486676612008        1.54588100838819
C            4.96532663839831        0.83578937791087        2.33670848679931
C            3.66260527490801        0.37337657784840        2.27882930799560
C            2.71191926193892        0.97217709498178        1.45114315000342
C            1.32705770800787        0.47540675567771        1.43349748320684
C            1.06328245798668       -0.89043426750490        1.43198795777645
C           -0.24405599313628       -1.36598024444689        1.43884796279084
C           -0.50772655405756       -2.81341155515964        1.46369165313818
C           -1.49152381804523       -3.33205405233255        2.30657027416821
C           -1.74595382354999       -4.69040191653126        2.37104344342414
C           -1.00630422815936       -5.54668483800598        1.57113309710317
C           -0.02349021651021       -5.02975508790102        0.71342018331368
C            0.23402488593433       -3.67979804815061        0.65678170300979
C            0.64058055393523       -6.14165755699749       -0.06346602233203
C            2.13976818076423       -6.19567814916862        0.10724794738366
C            2.86473809874763       -6.31557545980033        1.27304512530145
C            4.25074341906486       -6.35108423825056        1.19012218169500
C            4.89133131021118       -6.26951622733316       -0.03751303492045
C            4.16539761672465       -6.14884453000680       -1.21223872330197
C            2.78243375092171       -6.11019717321335       -1.13691471866525
C            1.76764262706500       -5.98838521077468       -2.17265938663470
C            1.87501984184542       -5.87707085797460       -3.54968992760898
C            0.71401771877961       -5.77482387958637       -4.30002566263523
C           -0.53150788173778       -5.78150545472796       -3.68966168495752
C           -0.64683444173519       -5.89330191117374       -2.31006232317210
C            0.50525438068057       -5.99737081967131       -1.56134228459515
C           -0.07066633544790       -7.36176239770871        0.47457783632830
C            0.12472700239657       -8.68389233074271        0.13971471267296
C           -0.65393844989853       -9.64785922856361        0.76728232651559
C           -1.60802177150337       -9.28851095497505        1.70791580561612
C           -1.80907223710415       -7.95945922150787        2.04547371222734
C           -1.03430735363838       -6.99245438004205        1.42499585353989
C           -1.29486222552475       -0.45464634785972        1.44133310955801
C           -1.05307593192237        0.91537838425816        1.44132881296824
C           -2.17731894518545        1.86443998361552        1.46518786172364
C           -2.13984016945443        2.97928232313556        2.30353642703801
C           -3.19621963003034        3.87051393911379        2.36935251467763
C           -4.30932993474157        3.64662921776868        1.57476905877420
C           -4.34599760387246        2.53509535961748        0.71950453201737
C           -3.29883966317676        1.64551283030946        0.66134979073223
C           -5.64419339200391        2.50136353145596       -0.05238375279335
C           -6.41491712738738        1.21480325801538        0.12197851522044
C           -6.87725756743456        0.64513809787307        1.28853153901705
C           -7.56466335464505       -0.55927579809774        1.21011837775552
C           -7.78113159951774       -1.17543593440933       -0.01361857360480
C           -7.31849175693829       -0.60489741504064       -1.18911099490913
C           -6.63206147212490        0.59661268495877       -1.11853497523624
C           -6.03586366725777        1.42370047474956       -2.15669722811427
C           -5.97883646220738        1.26508655897725       -3.53203171392701
C           -5.33413936900264        2.23319510617112       -4.28589413617910
C           -4.75492032430458        3.33862160674997       -3.68048135856016
C           -4.80837310218220        3.50436731310731       -2.30256725462211
C           -5.44985213933655        2.54453545093060       -1.55022669502306
C           -6.35598795528771        3.71898353362945        0.48842206086688
C           -7.60629662040601        4.19575769579009        0.16013117097071
C           -8.06166243168717        5.34790496813217        0.78826704391691
C           -7.27528939973377        6.00561384564666        1.72271977784586
C           -6.01653714094614        5.52989714619302        2.05461398350440
C           -5.55640385011940        4.37986061872244        1.43331174495579
C            0.26141955029808        1.36996871490888        1.43696803248355
C            3.08146793145674        2.05694554859855        0.65190707765246
C            4.37796337468757        2.51310164154022        0.70286423866993
H            4.44585720910918        3.56696076838950       -5.37161313791316
H            5.61714846036641        1.68458621857960       -4.32117601268368
H            5.93403799843173        1.60983674006971       -1.86802789255113
H            3.55910739063836        5.42017672789016       -4.00078643523259
H            2.83897149093203        7.08825073823919       -2.11716663350336
H            2.40315754470265        8.31373025745950       -0.01755730638329
H            3.15999838405004        7.41292465391296        2.13548650439285
H            4.37472969518669        5.25902384722964        2.24212267672005
H            7.31551364054495        5.28296965897616       -0.59451602833301
H            9.51048633520687        4.94802874578892        0.49738308294086
H            9.82830690284361        3.15020426644275        2.13620225961468
H            7.96257916227911        1.64309207006262        2.72834777346686
H            5.68388398676830        0.36499935370304        2.99134639363969
H            3.36452795592411       -0.45517897967617        2.90503884601291
H            1.88422552019077       -1.59261426248636        1.42928559356585
H           -2.04967000442210       -2.65610917032399        2.93832544656756
H           -2.50505891278182       -5.07332530788994        3.03709729249116
H            0.98598145974524       -3.28974129367782       -0.01421922018400
H            2.36622588837351       -6.38106829803880        2.22969555751018
H            4.83665855925572       -6.44427745422421        2.09310489286791
H            5.97080993163623       -6.30064268795586       -0.07740372549823
H            4.66890207091317       -6.08529773309119       -2.16568511386975
H            2.84233569506786       -5.87094749775952       -4.03020574145824
H            0.77872885288810       -5.68855955826895       -5.37528837149409
H           -1.42320679633753       -5.69962343752260       -4.29416469597029
H           -1.61752842672256       -5.89948071596481       -1.83511144601658
H            0.86732932115629       -8.96502785621709       -0.59336560966560
H           -0.51405824827333      -10.69008643724701        0.51959375076365
H           -2.20193415626944      -10.05614050230314        2.18312438882553
H           -2.55351396070624       -7.68435542540630        2.77808669851011
H           -2.31342405205335       -0.81455192057068        1.44701241859463
H           -1.27424699850434        3.13353308441217        2.93165807109914
H           -3.15278479033443        4.72156202214206        3.03296841000850
H           -3.33290366736089        0.79735557206365       -0.00740992902981
H           -6.70913141224823        1.12457403116089        2.24240579103068
H           -7.93534945652669       -1.02137557832189        2.11367096634560
H           -8.31830938518138       -2.11242166927294       -0.05018545176163
H           -7.48966770605294       -1.08853715833489       -2.13956431078979
H           -6.42806512783431        0.40612349399058       -4.00846689294942
H           -5.28131343262901        2.12627973292242       -5.35995587276947
H           -4.25744909174374        4.08084785197102       -4.28785259701966
H           -4.35767382460248        4.36645233857317       -1.83189236161826
H           -8.21926096435216        3.68450504565465       -0.56842415930413
H           -9.04024373320907        5.73605414831033        0.54565370263484
H           -7.65055706317557        6.90064747537021        2.19799417793099
H           -5.40793161738008        6.04543545789241        2.78289693651399
H            0.45858657435684        2.43209488717354        1.44008516174188
H            2.36102671073980        2.51745167508816       -0.00887817563236
