129
 energy: -198.105601332070 gnorm: 0.000065431773 xtb: 6.7.1 (edcfbbe)
C            6.09137221073943        3.21688534289215        1.97126231570796
C            5.03164774843098        3.65245911010941        2.75262173796488
C            3.85294566489285        4.09624664975594        2.16753441632746
C            3.76053587436220        4.09191453759661        0.79270332577292
C            4.82596501895978        3.64519307553198       -0.00209118254074
C            5.99945965032538        3.20587626423941        0.58869046685639
C            4.43919710527276        3.76326442867811       -1.39974409653624
C            5.12076193962769        3.45261468309737       -2.56526979665443
C            4.49534940541564        3.68004103908176       -3.78111823276628
C            3.21344601031068        4.20703204497376       -3.83457678503561
C            2.52313536802845        4.51870048677953       -2.67029136937856
C            3.14163336684317        4.29395357145102       -1.45947737940318
C            2.60664310198282        4.54757135594757       -0.07143237169179
C            2.22985727022288        5.98627686398366        0.19522458276209
C            3.01093905536546        7.11384110053474        0.06562173541572
C            2.45471755465705        8.34521282153966        0.38748062459977
C            1.14437214827486        8.43804980278194        0.83313697813849
C            0.35604119213631        7.30593273093654        0.96597583683384
C            0.90357401351611        6.07419182186774        0.64434229450055
C            0.33772279177270        4.73589163609674        0.67169624532021
C           -0.91927348256528        4.27575070479583        1.02967547254744
C           -1.18645494979591        2.92203587448850        0.93314872164072
C           -0.22652296840464        2.01504605949524        0.47876359405549
C           -0.55403749401637        0.58636538721055        0.35375600099794
C           -1.82358113640140        0.19172804934157       -0.05954653183028
C           -2.15120132931898       -1.15351358270241       -0.19010674471044
C           -3.49776806054389       -1.54625317404588       -0.63372299816489
C           -3.66596993772608       -2.56186605410597       -1.57548685795374
C           -4.92181997040017       -2.93074769400152       -2.02451700802014
C           -6.03239558569195       -2.27614274066235       -1.51577161802256
C           -5.86930918475220       -1.26491340210123       -0.55719064399924
C           -4.62031369083499       -0.89378788044868       -0.11823624527013
C           -7.20877200640451       -0.70173098300960       -0.14447277501996
C           -7.31205643746811        0.79232735201066       -0.33725034738303
C           -7.14284479083511        1.51978651057805       -1.49539194217039
C           -7.27532507426917        2.90116573017931       -1.43502849618184
C           -7.57086406631287        3.53479760648630       -0.23697924694079
C           -7.74119057543709        2.80647868910523        0.93003109413287
C           -7.61020593249746        1.42803572832328        0.87733044292029
C           -7.72363705205731        0.41289285664661        1.91361396005079
C           -8.00605224280417        0.51492959585333        3.26629348424887
C           -8.05061507046742       -0.64451662336074        4.02450131104833
C           -7.81651602729757       -1.88318947877524        3.44580075628212
C           -7.53317705883414       -1.99311039317746        2.09056375499606
C           -7.48881928816763       -0.84252635310945        1.33362440406829
C           -8.15733820193862       -1.50128271830292       -1.00617691776429
C           -9.53076681026363       -1.41583417097271       -1.07372280481629
C          -10.20499860698748       -2.26276279982415       -1.94407998831005
C           -9.51237094308292       -3.17459666441016       -2.72695997853731
C           -8.13092714496788       -3.26474394463075       -2.66055723287485
C           -7.45139506705141       -2.42223252499299       -1.79530181957848
C           -1.18797215045224       -2.11434156868699        0.09629881102206
C            0.08840466125895       -1.74422945679199        0.50784003483130
C            1.09994360243762       -2.77541009161915        0.78885036782960
C            0.75634732637485       -3.92636357706992        1.49922941057505
C            1.68219446875083       -4.92218903960909        1.75483723931710
C            2.97550755639012       -4.76888155143823        1.28123418874766
C            3.32668979472996       -3.61392208818535        0.56609153092808
C            2.40772639971557       -2.61988585602872        0.32251543071553
C            4.77423856125816       -3.67359264374671        0.13942354830523
C            5.60756489038867       -2.51441681144977        0.63172538599814
C            5.81900379313717       -2.10245379912494        1.92963808632784
C            6.64989890431943       -1.01185887204812        2.15063057921426
C            7.25432508837055       -0.35337454496961        1.09032957086889
C            7.03836987085044       -0.76035577626137       -0.21646628971521
C            6.20985863528431       -1.84681992950828       -0.44486792987347
C            5.80723610312576       -2.50371223051644       -1.67901311436544
C            6.12022913769607       -2.23513676417656       -3.00175945817099
C            5.58557700168478       -3.04797787747139       -3.98891393886777
C            4.75314903564939       -4.10892952471022       -3.66421644782707
C            4.43427594498348       -4.38345121018609       -2.34050589402542
C            4.96420183034026       -3.57743097131197       -1.35641052538950
C            5.20982067466487       -5.00298709266617        0.71071289261478
C            6.45034304951300       -5.59879678113366        0.64254725261527
C            6.62435516527446       -6.83695661618546        1.24743225897003
C            5.57394834869754       -7.46008949527042        1.90507061553600
C            4.32461280694754       -6.86424134483727        1.97511108727481
C            4.14385773560654       -5.62844723624679        1.37472535205727
C            0.39508440405411       -0.39311789125101        0.63392513899822
C            1.04462379683766        2.48355191616652        0.13373808085446
C            1.31459324241826        3.82821510369597        0.23568906351959
H            7.00090595034866        2.88409903451403        2.44978265159424
H            5.12486972752394        3.65089832387969        3.82903014268835
H            3.02892837152215        4.44081027450209        2.77602795254034
H            6.82678800617490        2.86548714606366       -0.01538093320652
H            6.11926766648885        3.04274088190728       -2.52856067493495
H            5.01235893599937        3.44472030308355       -4.70044380037846
H            2.74538862980618        4.37709543705150       -4.79338476209833
H            1.52383666824705        4.92779601419152       -2.71345241078446
H            4.03281862539832        7.04196344329602       -0.27864212624845
H            3.05071582516898        9.24110842218285        0.29067276129921
H            0.73365998904373        9.40673428976375        1.07945323395757
H           -0.66377018905560        7.38339751716964        1.31315194489740
H           -1.67964632707792        4.95836757733721        1.37960293977537
H           -2.15833384577925        2.55566484138183        1.23000717467299
H           -2.55674200268179        0.93946208881347       -0.32381244427960
H           -2.79137275689032       -3.05144082598557       -1.97918344200571
H           -5.03035592730326       -3.71119549623635       -2.76321750448376
H           -4.50634943401589       -0.11983536762787        0.62710806741972
H           -6.91142573410484        1.02718851572208       -2.42906864260592
H           -7.14618226729229        3.48883276129656       -2.33240784966704
H           -7.66907898740849        4.61076290474162       -0.21446422671951
H           -7.97047100609447        3.30446423501341        1.86068484483354
H           -8.18945609311082        1.47690841353620        3.72188218128044
H           -8.27047267421102       -0.58388632382236        5.08079630611261
H           -7.85632397526998       -2.77388884945782        4.05601180965229
H           -7.35247383602484       -2.95874119925235        1.64026263701716
H          -10.07124262588566       -0.70585093373239       -0.46411128215310
H          -11.28192210573877       -2.20961187712823       -2.01215916586323
H          -10.05834045424030       -3.82317150868997       -3.39706731919137
H           -7.59616249284034       -3.97612434963468       -3.27255032155198
H           -1.43262808930311       -3.16131731785812       -0.00561332084642
H           -0.25229804695813       -4.03020185808726        1.87260492042810
H            1.39767998394062       -5.80308089931279        2.31130884307134
H            2.68387773729531       -1.74143143280539       -0.24312316472178
H            5.35137191676406       -2.61811358225322        2.75635869210427
H            6.82957433346013       -0.67558098028681        3.16143189720225
H            7.90257163257666        0.48753699350160        1.28752276456617
H            7.51125474387778       -0.24561982786377       -1.03973672447826
H            6.76820540574961       -1.41064151255065       -3.26018258044986
H            5.82010048225863       -2.85377978912466       -5.02575787175959
H            4.34802747488798       -4.72985542374137       -4.45011149977283
H            3.78564743161349       -5.21023359335286       -2.08838418427499
H            7.26902172272037       -5.11396685606591        0.13011049751047
H            7.58973764856409       -7.32015427109963        1.20532578062732
H            5.73285736885298       -8.42337844811173        2.36825958693481
H            3.51005125766426       -7.35382065623552        2.48822198997460
H            1.37367046537174       -0.10444194371856        0.98916838612771
H            1.79892163877882        1.80197353256542       -0.23204828468526
