129
 energy: -198.006593987301 gnorm: 0.000052961552 xtb: 6.7.1 (edcfbbe)
C            5.49912656655333        3.31898213825558        2.91012823008454
C            4.35112683747807        3.96648869785711        3.34348714778093
C            3.38442429502396        4.38263463278002        2.43753728852806
C            3.59322288925577        4.14097804094880        1.09675514640863
C            4.75438404574225        3.49072336630264        0.65323371172156
C            5.71274767997235        3.07516296646497        1.56295506069179
C            4.70180183635314        3.39055096064872       -0.79650338489252
C            5.59216299892968        2.84269866100512       -1.70569996000577
C            5.28042646072173        2.89641479514937       -3.05472417145222
C            4.10349804038893        3.48821155918957       -3.49011513367852
C            3.20515524136062        4.03687253714906       -2.58430713066251
C            3.51067823479470        3.98447899800583       -1.24119555512228
C            2.69608244676567        4.48197346025760       -0.07075966559057
C            2.31870941345473        5.94113757364928       -0.13334245381792
C            3.13641817231807        7.03173445383595       -0.24236567237902
C            2.56124929458006        8.30651954627585       -0.27032442604395
C            1.17374401358626        8.46578699011875       -0.18606013093740
C            0.33543303795484        7.38401399358411       -0.07608576400096
C            0.89610688692411        6.08695769417960       -0.04701477377260
C            0.30858981995008        4.81974165743894        0.04997588250764
C           -1.04297560620364        4.38651819580402        0.15148545068131
C           -1.32158675617506        3.06025790778707        0.18468779133713
C           -0.30095660807025        2.04121644255952        0.13461024084827
C           -0.62246247818278        0.66061620830263        0.12269021369430
C           -1.93025928870759        0.19941082585096       -0.19529256350463
C           -2.23257699328511       -1.14330671381631       -0.26572113686870
C           -3.58660419103704       -1.57717703485798       -0.64102080793459
C           -3.76774839943673       -2.63816419050897       -1.53028659020860
C           -5.02997972706073       -3.04648343518247       -1.92165267924346
C           -6.13554462801023       -2.38652519333375       -1.40774880172249
C           -5.95991849006802       -1.32937801790894       -0.50128026309924
C           -4.70452233314136       -0.91992502511863       -0.11917972107321
C           -7.29586100618496       -0.77068304249869       -0.07186480991423
C           -7.44346725951324        0.70846736252872       -0.33832556730439
C           -7.32917541765574        1.37821434010975       -1.53736053239556
C           -7.50731255341581        2.75572329356773       -1.54596770728194
C           -7.79357403173631        3.44246418467710       -0.37522909893043
C           -7.90790103952362        2.77232902246194        0.83281261718280
C           -7.73129469938304        1.39815850635973        0.84895742288611
C           -7.78820177482725        0.43611177163556        1.93905357132081
C           -8.04211392565305        0.60082656742094        3.29115518942693
C           -8.03431848136858       -0.51797383944921        4.10925666617910
C           -7.77671168119848       -1.77809239122242        3.58987628208185
C           -7.52230071268902       -1.95081205704030        2.23542899323564
C           -7.53036581558367       -0.84085975852074        1.41894153077509
C           -8.25666889547768       -1.62779761185205       -0.86229892376356
C           -9.63290418515221       -1.57046330341548       -0.88730046441366
C          -10.31844486533069       -2.46585535669802       -1.69845213539179
C           -9.63383954677383       -3.39781822451000       -2.46482686616061
C           -8.24971336574249       -3.46076791520645       -2.44004821427521
C           -7.55876099043508       -2.56997907442696       -1.63362874018803
C           -1.23818788639685       -2.09370149606611        0.00560945293015
C            0.05875061032160       -1.68293828652484        0.35286286100728
C            1.08801896922096       -2.69040143528425        0.64867284656773
C            0.75431730325489       -3.85449496237354        1.34520493529747
C            1.69087908521370       -4.83768063954812        1.60559272911371
C            2.99060566438653       -4.65767717128624        1.15866322649816
C            3.33941137088021       -3.48176696067503        0.47511886971820
C            2.40610738728520       -2.50512303066768        0.21815219160661
C            4.79969010452875       -3.50632369805133        0.09197496712621
C            5.62573577565921       -2.39498731059711        0.69866438580636
C            5.78345731864414       -2.07359392626786        2.02943646591891
C            6.64988619206150       -1.04089676213514        2.36292752287912
C            7.34497869785725       -0.35228250617164        1.38001356706059
C            7.17911546156322       -0.66432431137415        0.04014472646830
C            6.31158122014755       -1.68925402974086       -0.30059061569785
C            5.94808394929199       -2.24887365886726       -1.59322771379455
C            6.32885108976304       -1.90052266642738       -2.87895529944849
C            5.81435792700374       -2.62458058271994       -3.94290736379361
C            4.93684562602833       -3.67737217321432       -3.72940248886772
C            4.55096572442404       -4.03235168336046       -2.44316613518786
C            5.05857359973836       -3.31330361314441       -1.38276284899219
C            5.23193935782096       -4.86043382477715        0.60901652129632
C            6.47505031390639       -5.44930308800746        0.53188449271384
C            6.64797320021832       -6.70701975937531        1.09554441803763
C            5.59481732717860       -7.35426697649794        1.72538101191627
C            4.34325413151866       -6.76501855968728        1.80530077436244
C            4.16275438103360       -5.51065198321382        1.24353915145073
C            0.35273997511666       -0.33725921344521        0.40224296047081
C            1.06354382870762        2.49495303740394        0.07630441193520
C            1.34169943111364        3.81436861061243        0.02758079371808
H            6.23652614830241        3.00340135650389        3.63414428769427
H            4.20653453832166        4.14884610803770        4.39858782767036
H            2.48964387048319        4.88528442898336        2.77602588834968
H            6.60546382293268        2.56954716822682        1.22848561832703
H            6.50966419905209        2.38478984639787       -1.36830157428448
H            5.96227524812604        2.47527136513027       -3.77953611915012
H            3.88162933112750        3.52097332204678       -4.54699887094851
H            2.28739942871201        4.49413482245175       -2.92542295731748
H            4.20911864701469        6.91593769980009       -0.30653300479674
H            3.19430697615917        9.17646128726393       -0.35680899908417
H            0.76025300719584        9.46426446774068       -0.20932339222056
H           -0.73470769737334        7.51102184103586       -0.01258353301075
H           -1.83440833191592        5.11952019885156        0.20591935357668
H           -2.34984571525371        2.75099962515483        0.28880805948610
H           -2.69533253042907        0.91086028104642       -0.46161016833381
H           -2.89878562170631       -3.13207754310374       -1.94070104663299
H           -5.14868894731801       -3.86156248814893       -2.62030198877619
H           -4.58007215924711       -0.11296031513391        0.58861645636792
H           -7.10650317395393        0.84405567084964       -2.45008424633169
H           -7.42231530695007        3.29838090543679       -2.47635351663764
H           -7.92871459049522        4.51421709045694       -0.40637200093317
H           -8.13056474118378        3.31154981078288        1.74180946839735
H           -8.24330945332688        1.57970662618298        3.70078352852414
H           -8.23136352880241       -0.40794739291594        5.16604049483279
H           -7.77536336171763       -2.63628908305890        4.24621775328381
H           -7.32375771514484       -2.93323998794480        1.83138532517086
H          -10.16706589975935       -0.84451994692930       -0.29108675884275
H          -11.39782192477483       -2.43516910244526       -1.73297232618296
H          -10.18856828567289       -4.08347808134281       -3.08926457889296
H           -7.72132021662960       -4.18830993092345       -3.03838476245300
H           -1.47295968565664       -3.14460373221956       -0.05315091258124
H           -0.25737622382354       -3.98066107446429        1.70248189614171
H            1.41018889600632       -5.73094242813414        2.14397613571817
H            2.67960989188069       -1.61849265895387       -0.33580449390241
H            5.25133254875605       -2.61739598592381        2.79693681721070
H            6.79007683553999       -0.77703068032450        3.40108380134480
H            8.02947826714566        0.43343017019822        1.66646565144282
H            7.72375401409393       -0.12777716081276       -0.72281777052464
H            7.01320185671174       -1.08290214975160       -3.05030651754708
H            6.10019798576906       -2.36680250660759       -4.95270851306252
H            4.54893356715690       -4.22899455564418       -4.57348183728978
H            3.86784820480840       -4.85331765035050       -2.27816586779830
H            7.29639292056988       -4.94520471267566        0.04282506929890
H            7.61479048773419       -7.18631359063809        1.04361646705242
H            5.75354776590856       -8.33170882299435        2.15789622136064
H            3.52636388354187       -7.27326964364806        2.29602030736684
H            1.33846647374570       -0.03772434258118        0.72064996830433
H            1.86842148861446        1.77865488140017        0.02318274927160
