  129
       -197.92989479
 C          5.1477860579        2.9739564878        3.1306458885
 C          4.1802108561        3.9203486387        3.4349100676
 C          3.3628705309        4.4460624883        2.4430078127
 C          3.5473700415        4.0174110686        1.1469225355
 C          4.5356139517        3.0728490335        0.8318970633
 C          5.3365809190        2.5406110420        1.8281287640
 C          4.5158220364        2.8462877893       -0.6039246534
 C          5.2698993848        2.0041743531       -1.4041171369
 C          5.0418582301        2.0102734911       -2.7707762975
 C          4.0843314050        2.8443155223       -3.3294010942
 C          3.3103016754        3.6758939727       -2.5307729041
 C          3.5296016316        3.6686051817       -1.1706574626
 C          2.7542380796        4.3750645128       -0.0863547806
 C          2.4458625298        5.8332987356       -0.2728937472
 C          3.3144811291        6.8767205211       -0.4352471618
 C          2.7988914399        8.1686658383       -0.5781830131
 C          1.4188039954        8.3931229864       -0.5536285931
 C          0.5290325268        7.3598732724       -0.3915275308
 C          1.0281766674        6.0468636782       -0.2470658365
 C          0.3782503843        4.8165360969       -0.0809979456
 C         -0.9904312018        4.4344949570       -0.0033921340
 C         -1.3188616001        3.1217164447        0.0922351841
 C         -0.3361969911        2.0651329566        0.1276019279
 C         -0.6858329024        0.6935663894        0.1132638331
 C         -1.9966342367        0.2467609424       -0.2109391548
 C         -2.2908546825       -1.0920772423       -0.3520849347
 C         -3.6499803436       -1.5088493853       -0.7236296940
 C         -3.8506250480       -2.5219198698       -1.6627113086
 C         -5.1209142332       -2.9090239900       -2.0493820861
 C         -6.2146315517       -2.2765356944       -1.4794849014
 C         -6.0177466084       -1.2686908274       -0.5231728103
 C         -4.7556972162       -0.8796364958       -0.1451345457
 C         -7.3414856280       -0.7303398987       -0.0386514871
 C         -7.4805595861        0.7614608271       -0.2130956554
 C         -7.3800620538        1.4986167877       -1.3723902543
 C         -7.5398270009        2.8758940999       -1.2957507123
 C         -7.7943205955        3.4946138437       -0.0808541556
 C         -7.8948390935        2.7558855332        1.0874529911
 C         -7.7359296842        1.3816245459        1.0187013209
 C         -7.7813224495        0.3566071231        2.0497688554
 C         -8.0062044909        0.4403839697        3.4140055185
 C         -7.9944093982       -0.7267167432        4.1611222701
 C         -7.7617633356       -1.9550415237        3.5606567079
 C         -7.5359349856       -2.0467298528        2.1937186395
 C         -7.5478500859       -0.8884655758        1.4483932954
 C         -8.3203725856       -1.5371328100       -0.8565446657
 C         -9.6957364466       -1.4693356618       -0.8521483937
 C        -10.4021381600       -2.3214880752       -1.6909194673
 C         -9.7381998540       -3.2210582331       -2.5117385829
 C         -8.3544704627       -3.2923115714       -2.5182878874
 C         -7.6424944930       -2.4438922045       -1.6856112035
 C         -1.2879499231       -2.0531980499       -0.1586498689
 C          0.0053873523       -1.6586701836        0.2210417630
 C          1.0532223465       -2.6624637799        0.4503746357
 C          0.7321288177       -3.9094213398        0.9915992040
 C          1.6920661211       -4.8851074360        1.1848713191
 C          3.0045682699       -4.6093128021        0.8371909314
 C          3.3431903387       -3.3488305524        0.3181816528
 C          2.3845482660       -2.3849084870        0.1165509642
 C          4.8227436464       -3.2745620695        0.0373350006
 C          5.5910632790       -2.2735890152        0.8695556354
 C          5.6040067585       -2.1282901613        2.2391851438
 C          6.4657020723       -1.1934112130        2.7974806705
 C          7.3070894900       -0.4358785485        1.9965261629
 C          7.2889408203       -0.5723030599        0.6168312648
 C          6.4175666095       -1.4891660047        0.0519858044
 C          6.1689590658       -1.8489760775       -1.3346153400
 C          6.6970661664       -1.3519822520       -2.5144421372
 C          6.2537788070       -1.8839388644       -3.7147213516
 C          5.3042020098       -2.8943425544       -3.7377696618
 C          4.7773382450       -3.4035637191       -2.5580972640
 C          5.2125034532       -2.8750109724       -1.3628193512
 C          5.2750979703       -4.6756977445        0.3928724845
 C          6.5402720032       -5.2123850863        0.3080975989
 C          6.7294352194       -6.5258569354        0.7175240361
 C          5.6707969577       -7.2771580038        1.2062851283
 C          4.3971863538       -6.7392848742        1.2939051483
 C          4.2000618717       -5.4305592064        0.8828829401
 C          0.2838977683       -0.3174520241        0.3648366207
 C          1.0424906880        2.4715838448        0.1145084329
 C          1.3658174002        3.7745928085        0.0051488031
 H          5.7638873319        2.5700115528        3.9209029002
 H          4.0566377388        4.2478215744        4.4567602405
 H          2.6015484131        5.1746875013        2.6810602618
 H          6.0855433788        1.7996298122        1.5968248306
 H          6.0080561010        1.3485854347       -0.9696823861
 H          5.6129478894        1.3530440507       -3.4101594332
 H          3.9305301824        2.8380702759       -4.3985500213
 H          2.5509652062        4.3103062030       -2.9646285419
 H          4.3819084248        6.7092513115       -0.4525087306
 H          3.4723985444        9.0017410709       -0.7074750930
 H          1.0520599019        9.4034474275       -0.6649878122
 H         -0.5356231429        7.5371973076       -0.3736278386
 H         -1.7574101022        5.1949326064       -0.0218446758
 H         -2.3611010588        2.8546382819        0.1689614385
 H         -2.7695965002        0.9667536879       -0.4228792123
 H         -2.9907320605       -2.9928675771       -2.1165224752
 H         -5.2545124597       -3.6866200380       -2.7869487678
 H         -4.6169529498       -0.1097276309        0.5996254483
 H         -7.1819817943        1.0153790174       -2.3182066273
 H         -7.4656768820        3.4722774974       -2.1932140672
 H         -7.9161193200        4.5674900043       -0.0458847723
 H         -8.0927337305        3.2429899386        2.0308426561
 H         -8.1876243497        1.3941869732        3.8868713559
 H         -8.1685134812       -0.6802989108        5.2261921509
 H         -7.7584396069       -2.8513041665        4.1632706974
 H         -7.3561484072       -3.0032280884        1.7243879400
 H        -10.2115483276       -0.7689099653       -0.2113503612
 H        -11.4813652516       -2.2836862643       -1.7034923601
 H        -10.3090447318       -3.8742534102       -3.1554497707
 H         -7.8425437416       -3.9937945462       -3.1603179159
 H         -1.5184410922       -3.0972804837       -0.2935843105
 H         -0.2888635746       -4.1103031205        1.2804231803
 H          1.4204938538       -5.8453910020        1.5977989299
 H          2.6522880996       -1.4350282090       -0.3221553023
 H          4.9634909080       -2.7326097504        2.8649593448
 H          6.4906554893       -1.0636762930        3.8692991030
 H          7.9885125715        0.2665095375        2.4555096267
 H          7.9510171247        0.0177856724       -0.0010533738
 H          7.4408725865       -0.5686733524       -2.5014790779
 H          6.6535032272       -1.5088667056       -4.6458605855
 H          4.9728857112       -3.2926882740       -4.6854374174
 H          4.0420495493       -4.1949233149       -2.5769174511
 H          7.3655432711       -4.6261072354       -0.0694810407
 H          7.7132844511       -6.9669361022        0.6565910173
 H          5.8430069542       -8.2957052552        1.5220246945
 H          3.5755847524       -7.3277852769        1.6745056673
 H          1.2590921473       -0.0349237885        0.7232633171
 H          1.8287605932        1.7354120467        0.1377707972
