  57
  -85.7142173849000       0.514605278855789      !
 C         -1.0779304207        3.5298999419       -2.2928033105
 C         -1.1178188796        2.3221617301       -2.9734387097
 C         -1.3515352945        1.1324806064       -2.2967781384
 C         -1.5453857552        1.1805442464       -0.9337123315
 C         -1.5060185905        2.3987457899       -0.2400702190
 C         -1.2717710470        3.5815681348       -0.9216443695
 C         -1.7347487865        2.1322702167        1.1713015719
 C         -1.8062283377        2.9825800126        2.2622885571
 C         -2.0465600687        2.4374596686        3.5133580582
 C         -2.2119914120        1.0700601064        3.6751777727
 C         -2.1394886898        0.2112439861        2.5866767071
 C         -1.9012763248        0.7501235725        1.3415834171
 C         -1.7713313052        0.0328547890        0.0201819117
 C         -2.9469183324       -0.8501053368       -0.3140742736
 C         -4.2682703008       -0.4997090108       -0.4395549224
 C         -5.1949016604       -1.4928797717       -0.7469236748
 C         -4.7913673054       -2.8131309988       -0.9204452240
 C         -3.4659591979       -3.1769000041       -0.7949079262
 C         -2.5246975576       -2.1902152068       -0.4904588172
 C         -1.1116631531       -2.2555106770       -0.3131951384
 C         -0.1975797315       -3.3223305902       -0.3552354018
 C          1.1305630668       -3.0814684466       -0.1510098465
 C          1.6456358987       -1.7624930315        0.0562897951
 C          3.0335787136       -1.5088820979        0.1364205392
 C          3.9250066341       -2.4960705401        0.6741756366
 C          5.1929289374       -2.1693072405        1.0582407339
 C          5.6885676029       -0.8697632846        0.8767570522
 C          4.9137746836        0.1027604466        0.2208164977
 C          5.4312139104        1.3793431348       -0.0644161116
 C          4.7160450965        2.2871872383       -0.8295207206
 C          3.4887873655        1.9259437511       -1.3501483968
 C          2.9465163649        0.6716459571       -1.0626083689
 C          3.5988279071       -0.2263500014       -0.2222400744
 C          0.6934839009       -0.7019173721        0.1729998841
 C         -0.6256913634       -0.9524159609       -0.0163789771
 H         -0.8919023108        4.4426126908       -2.8402643567
 H         -0.9628399956        2.3063365984       -4.0423658884
 H         -1.3793213537        0.1904639014       -2.8256800159
 H         -1.2375047025        4.5245136376       -0.3963265800
 H         -1.6787823813        4.0482032626        2.1416649913
 H         -2.1064001567        3.0858177854        4.3755040312
 H         -2.3986338019        0.6681061244        4.6602840064
 H         -2.2668962890       -0.8543751693        2.7120703562
 H         -4.5831583582        0.5248274353       -0.3030790783
 H         -6.2383173353       -1.2356952371       -0.8509682472
 H         -5.5312626315       -3.5641034349       -1.1576269766
 H         -3.1578882068       -4.2027921087       -0.9311955713
 H         -0.5470118218       -4.3236236776       -0.5612946752
 H          1.8273905693       -3.9014584248       -0.2314150961
 H          3.5494857048       -3.4876880914        0.8702452456
 H          5.8260188969       -2.9140321576        1.5185681550
 H          6.6942739087       -0.6259269277        1.1832170813
 H          6.4062811063        1.6415135440        0.3199695035
 H          5.1290976774        3.2642384832       -1.0329561242
 H          2.9370537530        2.6076498348       -1.9801842027
 H          2.0150305055        0.3899264716       -1.5309323480
 H          1.0285984066        0.2822191567        0.4654065282
  57
  -85.7129754030000       0.138260739369478      !
 C         -0.8706717072        3.7419983404       -1.9399896522
 C         -0.7625973368        2.5801486698       -2.6893242522
 C         -1.0452355678        1.3422981932       -2.1272832562
 C         -1.4362484833        1.2939546752       -0.8069308195
 C         -1.5447976154        2.4667165755       -0.0441199577
 C         -1.2640136331        3.6981767324       -0.6120333625
 C         -1.9510442504        2.1044405678        1.3045984924
 C         -2.2237659268        2.8805572391        2.4191631331
 C         -2.6069340245        2.2476805497        3.5908234566
 C         -2.7134955171        0.8663152449        3.6530397381
 C         -2.4407003231        0.0817836635        2.5407025715
 C         -2.0614560731        0.7089006039        1.3745196491
 C         -1.7406325318        0.0831299970        0.0343270730
 C         -2.8710637904       -0.8051129411       -0.4245503510
 C         -4.1535733173       -0.4523585887       -0.7618498231
 C         -5.0505435012       -1.4585583056       -1.1135550974
 C         -4.6593451210       -2.7940692299       -1.1096018672
 C         -3.3735460701       -3.1605668108       -0.7682466737
 C         -2.4585509832       -2.1606481028       -0.4268355270
 C         -1.0747815613       -2.2213800332       -0.0944499721
 C         -0.1763284219       -3.2947852855        0.0417269635
 C          1.1454295167       -3.0414631661        0.2702803253
 C          1.6673566050       -1.7100079734        0.2974321252
 C          3.0601066750       -1.4629973835        0.2857767389
 C          3.9613489786       -2.3461423272        0.9641854146
 C          5.2646900263       -2.0005305140        1.1776393666
 C          5.7826512615       -0.7995042028        0.6726430171
 C          4.9825570549        0.0475052088       -0.1144800204
 C          5.5165891737        1.1989401623       -0.7212042070
 C          4.7630384678        1.9606727163       -1.6004590208
 C          3.4726925033        1.5750330818       -1.9068119269
 C          2.9162103630        0.4460715715       -1.3037078996
 C          3.6206254851       -0.2968474995       -0.3591889244
 C          0.7242003673       -0.6351279932        0.2903304574
 C         -0.5934991258       -0.8967564472        0.1082809335
 H         -0.6429097834        4.6938072687       -2.3977816836
 H         -0.4520561382        2.6387446671       -3.7223754926
 H         -0.9580634009        0.4367482955       -2.7106669150
 H         -1.3448111104        4.6053005104       -0.0315485456
 H         -2.1438786803        3.9567105545        2.3763263731
 H         -2.8285621579        2.8376149099        4.4683873804
 H         -3.0172188400        0.3952846184        4.5763771776
 H         -2.5290112969       -0.9941109668        2.5865584627
 H         -4.4609312970        0.5834931974       -0.7584509238
 H         -6.0616720464       -1.1995018656       -1.3894969407
 H         -5.3768780306       -3.5545809533       -1.3823641797
 H         -3.0733524543       -4.1977679961       -0.7710856744
 H         -0.5317102074       -4.3104583309       -0.0533643495
 H          1.8368346508       -3.8681649957        0.3270248562
 H          3.5707390352       -3.2523313830        1.3998962078
 H          5.9100940988       -2.6534341794        1.7473574595
 H          6.8189580188       -0.5456255632        0.8356229969
 H          6.5359551204        1.4780455078       -0.4971638689
 H          5.1923651031        2.8407898332       -2.0562526844
 H          2.8840686675        2.1393955181       -2.6145924662
 H          1.9291753530        0.1308313410       -1.6070713705
 H          1.0704207412        0.3717773991        0.4729617765
  57
  -85.7127266608000       0.106263685612852      !
 C         -0.8542434381        3.7585543845       -1.9077887034
 C         -0.7255464122        2.5995265804       -2.6582461057
 C         -1.0112915215        1.3584368682       -2.1050369342
 C         -1.4255223754        1.3038390214       -0.7920205484
 C         -1.5548845532        2.4737771789       -0.0280602795
 C         -1.2718012365        3.7085811238       -0.5874742777
 C         -1.9802282838        2.1050458888        1.3130164301
 C         -2.2794309114        2.8762922311        2.4242136314
 C         -2.6772463448        2.2375328743        3.5877830790
 C         -2.7718868793        0.8550980127        3.6456183449
 C         -2.4729390976        0.0754481739        2.5365637904
 C         -2.0793996517        0.7084692448        1.3782915885
 C         -1.7359656435        0.0888256930        0.0405654221
 C         -2.8609753988       -0.8007348849       -0.4298456333
 C         -4.1389691601       -0.4492586016       -0.7849113817
 C         -5.0322885251       -1.4571490955       -1.1412410010
 C         -4.6425521670       -2.7929748598       -1.1225612361
 C         -3.3611760434       -3.1581291615       -0.7636663921
 C         -2.4492091536       -2.1565288906       -0.4188779532
 C         -1.0687171366       -2.2155466627       -0.0733372589
 C         -0.1710932981       -3.2882847221        0.0741998063
 C          1.1500628282       -3.0334266231        0.3040687015
 C          1.6722087545       -1.7018582009        0.3191728003
 C          3.0654495609       -1.4574198214        0.2962195378
 C          3.9686224209       -2.3354910781        0.9784091782
 C          5.2771707528       -1.9967032255        1.1701098828
 C          5.7978045815       -0.8085517975        0.6384434327
 C          4.9932804794        0.0331420100       -0.1499379685
 C          5.5286787500        1.1705340781       -0.7814597194
 C          4.7692238160        1.9263139363       -1.6607261454
 C          3.4705828388        1.5488468744       -1.9411361285
 C          2.9128171348        0.4341908794       -1.3131977824
 C          3.6249885132       -0.3029172206       -0.3698559048
 C          0.7292122915       -0.6268047049        0.3059264727
 C         -0.5884755379       -0.8896425305        0.1247553207
 H         -0.6234964985        4.7129823172       -2.3585557158
 H         -0.3968584321        2.6630082951       -3.6853793033
 H         -0.9089941124        0.4551761971       -2.6895559788
 H         -1.3668334177        4.6133424446       -0.0054460702
 H         -2.2100550426        3.9532982371        2.3844962843
 H         -2.9199919142        2.8236183280        4.4623470671
 H         -3.0863106880        0.3793382784        4.5629439366
 H         -2.5512328049       -1.0013543185        2.5791219658
 H         -4.4455349632        0.5868018028       -0.7921023179
 H         -6.0400010368       -1.1992579805       -1.4304644201
 H         -5.3575768336       -3.5548331680       -1.3981330602
 H         -3.0619832332       -4.1955818770       -0.7555091179
 H         -0.5264248818       -4.3045589432       -0.0141941771
 H          1.8412740421       -3.8597265422        0.3685457641
 H          3.5763870009       -3.2310312462        1.4342424270
 H          5.9244468392       -2.6448581224        1.7430697714
 H          6.8382365852       -0.5604787390        0.7831017863
 H          6.5542529347        1.4424358496       -0.5777109840
 H          5.1996692829        2.7957416811       -2.1355942336
 H          2.8758556116        2.1095838541       -2.6466808278
 H          1.9178142602        0.1251162873       -1.5960546368
 H          1.0759856018        0.3813120797        0.4808568456
  57
  -85.7124435073000       7.875108317562804E-002 !
 C         -0.8747845801        3.7879335252       -1.8788790754
 C         -0.7138110592        2.6335394500       -2.6302155418
 C         -0.9860554475        1.3859606561       -2.0848493316
 C         -1.4189835732        1.3199835807       -0.7783776632
 C         -1.5797853199        2.4852937262       -0.0131639122
 C         -1.3106019427        3.7265986118       -0.5649536471
 C         -2.0172182872        2.1053879538        1.3208664748
 C         -2.3454474506        2.8680341591        2.4298254987
 C         -2.7470958908        2.2189989736        3.5863545142
 C         -2.8166517588        0.8348919975        3.6396989963
 C         -2.4890920495        0.0638793500        2.5327199636
 C         -2.0921473678        0.7071586728        1.3812937144
 C         -1.7264378024        0.0978789592        0.0441420881
 C         -2.8463023711       -0.7928168138       -0.4377162129
 C         -4.1186217591       -0.4420413941       -0.8128838398
 C         -5.0084442510       -1.4513829097       -1.1739882196
 C         -4.6213550311       -2.7876749189       -1.1387916081
 C         -3.3457616420       -3.1520451221       -0.7592629963
 C         -2.4366668674       -2.1490461327       -0.4106669435
 C         -1.0598439814       -2.2066655711       -0.0513109667
 C         -0.1651173838       -3.2794663085        0.1131067665
 C          1.1555769484       -3.0242856134        0.3447803031
 C          1.6800477252       -1.6935232834        0.3421692967
 C          3.0740938738       -1.4539784584        0.3105014339
 C          3.9763461933       -2.3239146008        1.0039022292
 C          5.2889983334       -1.9912350987        1.1780049214
 C          5.8141286031       -0.8188296158        0.6169678527
 C          5.0088463973        0.0132635324       -0.1808322855
 C          5.5478546415        1.1326801704       -0.8407992424
 C          4.7863559442        1.8772159617       -1.7277813800
 C          3.4814388073        1.5061820730       -1.9869894311
 C          2.9203517076        0.4095144442       -1.3311746656
 C          3.6357506973       -0.3155827976       -0.3808936206
 C          0.7390599662       -0.6167148699        0.3168832521
 C         -0.5789232109       -0.8792038371        0.1372897956
 H         -0.6540212691        4.7476062709       -2.3234470918
 H         -0.3702200599        2.7059328639       -3.6518553368
 H         -0.8602756714        0.4865585325       -2.6707326048
 H         -1.4309607742        4.6278093296        0.0178991811
 H         -2.2956726293        3.9462424308        2.3935744554
 H         -3.0119776929        2.7981699205        4.4591037895
 H         -3.1329973934        0.3509114474        4.5520587115
 H         -2.5481593729       -1.0142841196        2.5716658843
 H         -4.4234989712        0.5943710430       -0.8318617984
 H         -6.0115296604       -1.1942185063       -1.4794627632
 H         -5.3337463347       -3.5505411564       -1.4183379873
 H         -3.0481512134       -4.1897959340       -0.7396186516
 H         -0.5222634643       -4.2960020664        0.0359110460
 H          1.8451726121       -3.8508228584        0.4222183495
 H          3.5813139346       -3.2072277239        1.4808006042
 H          5.9362662457       -2.6327032834        1.7584723677
 H          6.8577858900       -0.5762207564        0.7469348128
 H          6.5779636846        1.3990551510       -0.6532393921
 H          5.2200690818        2.7319530614       -2.2257487376
 H          2.8848022053        2.0576328272       -2.6982083405
 H          1.9196539873        0.1041296250       -1.5972359352
 H          1.0880735085        0.3924685670        0.4810362542
  57
  -85.7122437181000       6.374406817041127E-002 !
 C         -1.7866838492        3.3459968924       -2.6883137944
 C         -1.8758289903        2.0824422691       -3.2531373481
 C         -1.8687885743        0.9457714737       -2.4559825514
 C         -1.7744192095        1.1038149337       -1.0908320008
 C         -1.6876858155        2.3778267702       -0.5131450796
 C         -1.6909052701        3.5072770093       -1.3153078714
 C         -1.6190686097        2.2234506678        0.9312444912
 C         -1.5144178163        3.1625129272        1.9436600636
 C         -1.4690382755        2.7200665957        3.2559491430
 C         -1.5276672036        1.3668401346        3.5535627799
 C         -1.6311276624        0.4195817471        2.5435629841
 C         -1.6772898379        0.8550348057        1.2373458764
 C         -1.7580976564        0.0327672052       -0.0205025190
 C         -2.9450994184       -0.8882538695       -0.1526008867
 C         -4.2755730659       -0.6017132265        0.0266249928
 C         -5.2085271417       -1.6147648326       -0.1800553963
 C         -4.8029546128       -2.8872154123       -0.5700652041
 C         -3.4682319539       -3.1848254985       -0.7574127726
 C         -2.5208503049       -2.1802488541       -0.5462534863
 C         -1.0967614050       -2.1978163642       -0.6097788065
 C         -0.1735786393       -3.2160243985       -0.8978361663
 C          1.1610552130       -2.9764058120       -0.7485483049
 C          1.6787806613       -1.7128255117       -0.3112494682
 C          3.0587365061       -1.5164072678       -0.0881341716
 C          3.9034940351       -2.6339163535        0.2367474042
 C          5.1079024175       -2.4580551331        0.8520272565
 C          5.5896794639       -1.1726730728        1.1373308619
 C          4.8897081327       -0.0386252514        0.6905850544
 C          5.4093201306        1.2559604050        0.8712285408
 C          4.7941167946        2.3587104339        0.3027435985
 C          3.6781193988        2.1836159976       -0.4928796655
 C          3.1303568279        0.9105346018       -0.6645148165
 C          3.6614157669       -0.2004270956       -0.0169051056
 C          0.7209325677       -0.6805428454       -0.0509105696
 C         -0.6030255474       -0.9209768606       -0.2230271037
 H         -1.7953283839        4.2160041221       -3.3289240569
 H         -1.9528452677        1.9812543466       -4.3258103107
 H         -1.9393488508       -0.0389020124       -2.8953140493
 H         -1.6264985459        4.4938635120       -0.8807166460
 H         -1.4672043420        4.2171813401        1.7159211746
 H         -1.3856615357        3.4383034783        4.0587156592
 H         -1.4900378291        1.0456971378        4.5841458961
 H         -1.6734507614       -0.6348038325        2.7752380634
 H         -4.5922535898        0.3864937403        0.3276595914
 H         -6.2589132222       -1.4103141686       -0.0363834535
 H         -5.5481455691       -3.6541381951       -0.7255321423
 H         -3.1580386411       -4.1745586932       -1.0577576950
 H         -0.5221378020       -4.1804584671       -1.2380408324
 H          1.8568729950       -3.7551105154       -1.0185923119
 H          3.5379141611       -3.6351335551        0.0785335770
 H          5.6966928716       -3.3174226530        1.1387339548
 H          6.5374207459       -1.0468264633        1.6379692346
 H          6.3057830099        1.3762706737        1.4621593335
 H          5.2020025185        3.3460821688        0.4621169192
 H          3.2175946695        3.0286167958       -0.9825134602
 H          2.2949472830        0.7902439464       -1.3383129918
 H          1.0485648681        0.2625576408        0.3586308493
  57
  -85.7121803314000       5.960864729873181E-002 !
 C         -0.9692345971        3.8347517208       -1.8642704961
 C         -0.7541716081        2.6884441705       -2.6144562641
 C         -0.9838635830        1.4303965779       -2.0735006521
 C         -1.4271935596        1.3455012773       -0.7716125849
 C         -1.6397000090        2.5028370535       -0.0066069113
 C         -1.4150101241        3.7545604669       -0.5547170022
 C         -2.0724402548        2.1048411246        1.3236153920
 C         -2.4356587549        2.8528964853        2.4316463496
 C         -2.8172886083        2.1874402863        3.5855958305
 C         -2.8321904645        0.8016002141        3.6375963088
 C         -2.4712904808        0.0451972059        2.5309278743
 C         -2.0948584003        0.7047763433        1.3818596585
 C         -1.7110364090        0.1121365595        0.0415186427
 C         -2.8295456094       -0.7798794604       -0.4439345889
 C         -4.1001451799       -0.4300968435       -0.8254759394
 C         -4.9889601426       -1.4409311355       -1.1849219185
 C         -4.6024119051       -2.7772216341       -1.1415600123
 C         -3.3287139582       -3.1403418801       -0.7546418248
 C         -2.4205413126       -2.1358864858       -0.4074382065
 C         -1.0451929054       -2.1914949116       -0.0429503575
 C         -0.1541803032       -3.2648992866        0.1358794254
 C          1.1659728543       -3.0103060909        0.3708780497
 C          1.6937387208       -1.6812169800        0.3527694715
 C          3.0897992033       -1.4499330019        0.3283869043
 C          3.9786489619       -2.3093076585        1.0513378343
 C          5.2938732056       -1.9860217056        1.2238744144
 C          5.8351054957       -0.8366191386        0.6314742708
 C          5.0428827033       -0.0184551545       -0.1933804923
 C          5.5985899633        1.0734771115       -0.8847076236
 C          4.8494589447        1.8011588015       -1.7959594178
 C          3.5395362387        1.4417689613       -2.0459666324
 C          2.9616109904        0.3733366781       -1.3589088411
 C          3.6662123070       -0.3352896066       -0.3882611073
 C          0.7568776242       -0.6014851236        0.3085201570
 C         -0.5622262873       -0.8623864957        0.1332925384
 H         -0.7836356323        4.8030145255       -2.3062623620
 H         -0.4031206481        2.7757948150       -3.6323604240
 H         -0.8174556689        0.5375881851       -2.6592826487
 H         -1.5776163787        4.6495063541        0.0275499370
 H         -2.4281145278        3.9322620053        2.3965038227
 H         -3.1090293220        2.7548732051        4.4574921749
 H         -3.1325856712        0.3046038855        4.5483404086
 H         -2.4891920564       -1.0344916654        2.5684641632
 H         -4.4041819265        0.6064279653       -0.8512323060
 H         -5.9903740662       -1.1848695854       -1.4966492616
 H         -5.3142460408       -3.5411955827       -1.4195011354
 H         -3.0319501683       -4.1781633350       -0.7278206067
 H         -0.5137542376       -4.2812022586        0.0675821332
 H          1.8536245572       -3.8371278710        0.4618685865
 H          3.5707407357       -3.1740250349        1.5510713189
 H          5.9304396253       -2.6166617443        1.8275557422
 H          6.8808923408       -0.6022161861        0.7594558205
 H          6.6320925449        1.3306920893       -0.7031687560
 H          5.2962961022        2.6339675519       -2.3188852507
 H          2.9523433810        1.9806154195       -2.7744937390
 H          1.9563773744        0.0752835037       -1.6158709085
 H          1.1096193886        0.4086459159        0.4585389899
  57
  -85.7117737482000       3.876649751710949E-002 !
 C         -1.2023377800        3.4328716419       -2.6555843959
 C         -1.1470663456        2.1845679321       -3.2571032098
 C         -1.3163237213        1.0261284300       -2.5103675866
 C         -1.5400576536        1.1444461607       -1.1560926076
 C         -1.5942606871        2.4057532626       -0.5425935869
 C         -1.4268292377        3.5569170900       -1.2939184726
 C         -1.8301973455        2.2189606701        0.8801555503
 C         -1.9854421901        3.1307567317        1.9115797476
 C         -2.2139337440        2.6522538769        3.1918413572
 C         -2.2830874501        1.2897892998        3.4418927844
 C         -2.1281422516        0.3700849003        2.4135490128
 C         -1.9035299375        0.8437721106        1.1397080384
 C         -1.7302493085        0.0514749263       -0.1402796752
 C         -2.9121868901       -0.8641737165       -0.3462717806
 C         -4.2156309628       -0.5329801427       -0.6208542456
 C         -5.1526099186       -1.5570033175       -0.7336411937
 C         -4.7793619760       -2.8858020465       -0.5586616396
 C         -3.4721052114       -3.2292606387       -0.2787484123
 C         -2.5194066196       -2.2131187783       -0.1736909301
 C         -1.1109169711       -2.2581764346        0.0421403805
 C         -0.2133954981       -3.3239385405        0.2157024044
 C          1.1273865585       -3.0753496942        0.2510467992
 C          1.6765724677       -1.7569851849        0.1214045458
 C          3.0699515198       -1.5393797408        0.0663804734
 C          3.9471643666       -2.5858550746       -0.3856542224
 C          5.1973907128       -2.3099503897       -0.8556175274
 C          5.6921743920       -0.9981188251       -0.8588872146
 C          4.9515152065        0.0392308466       -0.2663881605
 C          5.4765530363        1.3396952368       -0.1581400338
 C          4.8111286718        2.3217151126        0.5561319566
 C          3.6360633641        2.0106453503        1.2132956993
 C          3.0831962662        0.7335439016        1.0972579941
 C          3.6705003567       -0.2402914969        0.2960191332
 C          0.7406194462       -0.6813657951       -0.0171059560
 C         -0.5920351622       -0.9348534985       -0.0261540077
 H         -1.0674055936        4.3200987098       -3.2572413673
 H         -0.9695481983        2.1127207584       -4.3201287942
 H         -1.2701433118        0.0536773744       -2.9787746817
 H         -1.4664334130        4.5307344573       -0.8285492307
 H         -1.9346812238        4.1928597590        1.7225878567
 H         -2.3408237867        3.3491269490        4.0077189842
 H         -2.4628320873        0.9398984233        4.4478827514
 H         -2.1865121813       -0.6914195971        2.6068122524
 H         -4.5075327849        0.4988296161       -0.7535897688
 H         -6.1810234630       -1.3168270901       -0.9581058402
 H         -5.5278693196       -3.6601191988       -0.6469277904
 H         -3.1866504093       -4.2622425649       -0.1467985796
 H         -0.5864936001       -4.3323550405        0.3219092229
 H          1.7985899547       -3.9004714268        0.4301788324
 H          3.5777670825       -3.5964155592       -0.4443332738
 H          5.8143381319       -3.1070223721       -1.2448034657
 H          6.6766301570       -0.7900945553       -1.2490621331
 H          6.4164444741        1.5606382696       -0.6429125538
 H          5.2246359357        3.3176114048        0.6183256834
 H          3.1336382720        2.7526255437        1.8156918152
 H          2.1976133032        0.4959099089        1.6679000151
 H          1.0991325783        0.3205570410       -0.1957949336
