  57
        -86.09830331
 C         -1.0779304207        3.5298999419       -2.2928033105
 C         -1.1178188796        2.3221617301       -2.9734387097
 C         -1.3515352945        1.1324806064       -2.2967781384
 C         -1.5453857552        1.1805442464       -0.9337123315
 C         -1.5060185905        2.3987457899       -0.2400702190
 C         -1.2717710470        3.5815681348       -0.9216443695
 C         -1.7347487865        2.1322702167        1.1713015719
 C         -1.8062283377        2.9825800126        2.2622885571
 C         -2.0465600687        2.4374596686        3.5133580582
 C         -2.2119914120        1.0700601064        3.6751777727
 C         -2.1394886898        0.2112439861        2.5866767071
 C         -1.9012763248        0.7501235725        1.3415834171
 C         -1.7713313052        0.0328547890        0.0201819117
 C         -2.9469183324       -0.8501053368       -0.3140742736
 C         -4.2682703008       -0.4997090108       -0.4395549224
 C         -5.1949016604       -1.4928797717       -0.7469236748
 C         -4.7913673054       -2.8131309988       -0.9204452240
 C         -3.4659591979       -3.1769000041       -0.7949079262
 C         -2.5246975576       -2.1902152068       -0.4904588172
 C         -1.1116631531       -2.2555106770       -0.3131951384
 C         -0.1975797315       -3.3223305902       -0.3552354018
 C          1.1305630668       -3.0814684466       -0.1510098465
 C          1.6456358987       -1.7624930315        0.0562897951
 C          3.0335787136       -1.5088820979        0.1364205392
 C          3.9250066341       -2.4960705401        0.6741756366
 C          5.1929289374       -2.1693072405        1.0582407339
 C          5.6885676029       -0.8697632846        0.8767570522
 C          4.9137746836        0.1027604466        0.2208164977
 C          5.4312139104        1.3793431348       -0.0644161116
 C          4.7160450965        2.2871872383       -0.8295207206
 C          3.4887873655        1.9259437511       -1.3501483968
 C          2.9465163649        0.6716459571       -1.0626083689
 C          3.5988279071       -0.2263500014       -0.2222400744
 C          0.6934839009       -0.7019173721        0.1729998841
 C         -0.6256913634       -0.9524159609       -0.0163789771
 H         -0.8919023108        4.4426126908       -2.8402643567
 H         -0.9628399956        2.3063365984       -4.0423658884
 H         -1.3793213537        0.1904639014       -2.8256800159
 H         -1.2375047025        4.5245136376       -0.3963265800
 H         -1.6787823813        4.0482032626        2.1416649913
 H         -2.1064001567        3.0858177854        4.3755040312
 H         -2.3986338019        0.6681061244        4.6602840064
 H         -2.2668962890       -0.8543751693        2.7120703562
 H         -4.5831583582        0.5248274353       -0.3030790783
 H         -6.2383173353       -1.2356952371       -0.8509682472
 H         -5.5312626315       -3.5641034349       -1.1576269766
 H         -3.1578882068       -4.2027921087       -0.9311955713
 H         -0.5470118218       -4.3236236776       -0.5612946752
 H          1.8273905693       -3.9014584248       -0.2314150961
 H          3.5494857048       -3.4876880914        0.8702452456
 H          5.8260188969       -2.9140321576        1.5185681550
 H          6.6942739087       -0.6259269277        1.1832170813
 H          6.4062811063        1.6415135440        0.3199695035
 H          5.1290976774        3.2642384832       -1.0329561242
 H          2.9370537530        2.6076498348       -1.9801842027
 H          2.0150305055        0.3899264716       -1.5309323480
 H          1.0285984066        0.2822191567        0.4654065282
