  41
  -69.8359469100000       0.168298050456774      !
 C          5.3674325135       -2.7829177426       -0.0948735806
 O          3.9828500731       -2.5320421670       -0.0892115280
 C          3.5555611226       -1.2384470387       -0.0479609913
 C          4.4154717035       -0.1187462542       -0.0056386775
 C          3.9235727767        1.2023955539        0.0242181023
 O          4.6032385564        2.2220087568        0.0508483557
 O          2.5419513138        1.3864423259        0.0248246487
 C          1.7014857018        0.3309349275       -0.0023000057
 C          2.1691904528       -1.0228370909       -0.0481105480
 C          1.2180563282       -2.0908674132       -0.1155813684
 C         -0.1346583010       -1.8562264743       -0.1095174196
 C         -0.5800074955       -0.5377415696       -0.0177818698
 C          0.3456348926        0.5607000662        0.0056655536
 C         -0.4478290745        1.7629665284        0.0231790996
 C         -0.1247514142        3.1059308771        0.0684726093
 C         -1.1650874868        4.0338734587        0.1149887636
 C         -2.4883948275        3.6270332799        0.1359696524
 C         -2.8316105420        2.2785978680        0.0896438117
 C         -1.8020774504        1.3531463900        0.0077218313
 N         -1.8627556179       -0.0310514006       -0.0180399862
 C         -3.0306859040       -0.7862899235       -0.0078145398
 C         -3.1589211356       -1.8737334984        0.8627014693
 C         -4.3205933422       -2.6174185191        0.8704725859
 C         -5.3661355348       -2.2975148858        0.0152264781
 C         -5.2406814554       -1.2221696745       -0.8531870519
 C         -4.0856530856       -0.4679382984       -0.8695553127
 H          5.8480926792       -2.4075362776        0.8139357728
 H          5.8527894966       -2.3422697419       -0.9712856345
 H          5.4666690498       -3.8664197703       -0.1340650817
 H          5.4861193771       -0.2212131550        0.0007176450
 H          1.6070574079       -3.0914641264       -0.1853941030
 H         -0.8326845324       -2.6750710447       -0.1901240242
 H          0.9070420676        3.4168384883        0.0745380077
 H         -0.9318894383        5.0871446516        0.1498606476
 H         -3.2738904742        4.3648235271        0.1950632755
 H         -3.8653141713        1.9729126248        0.1358556105
 H         -2.3574297671       -2.0967391258        1.5506102910
 H         -4.4171510022       -3.4475199545        1.5539368413
 H         -6.2722231539       -2.8828853473        0.0249857701
 H         -6.0464364755       -0.9769432346       -1.5285059502
 H         -3.9698374623        0.3437159921       -1.5719466169
  41
  -69.8359435700000       0.167704272678892      !
 C          5.3646109240       -2.7692650153       -0.3446683325
 O          3.9807667737       -2.5221924347       -0.2763546358
 C          3.5542133612       -1.2319247844       -0.1724129070
 C          4.4140933966       -0.1125532899       -0.1219922022
 C          3.9232139241        1.2039287109       -0.0029325774
 O          4.6030565391        2.2218282250        0.0587866480
 O          2.5422044497        1.3850935133        0.0492196521
 C          1.7015254431        0.3310753954       -0.0085582865
 C          2.1686561290       -1.0196962649       -0.1120522661
 C          1.2184003455       -2.0905539431       -0.1267118069
 C         -0.1336874319       -1.8585404726       -0.0723982338
 C         -0.5798246124       -0.5381614405       -0.0194747121
 C          0.3462163594        0.5585190572        0.0417719531
 C         -0.4459246092        1.7553147647        0.1661126528
 C         -0.1225149181        3.0967412886        0.2439107323
 C         -1.1625227468        4.0231681854        0.3187618221
 C         -2.4864142254        3.6183033124        0.2963452102
 C         -2.8299321787        2.2713646181        0.2187326786
 C         -1.7997142807        1.3439489966        0.1786294476
 N         -1.8613882108       -0.0360843756        0.0676039847
 C         -3.0302488499       -0.7877955498        0.0113513163
 C         -4.0622184178       -0.5594927204        0.9277834756
 C         -5.2190410495       -1.3083680020        0.8639362219
 C         -5.3689686914       -2.2895563781       -0.1061531749
 C         -4.3459571352       -2.5206505960       -1.0154730410
 C         -3.1827716000       -1.7812722061       -0.9615230569
 H          5.8143005754       -2.2990927672       -1.2248708260
 H          5.4632931704       -3.8506183727       -0.4233439359
 H          5.8805941652       -2.4227916682        0.5562457708
 H          5.4840838408       -0.2124254014       -0.1658615950
 H          1.6079313098       -3.0925445001       -0.1684006524
 H         -0.8302358753       -2.6823870977       -0.0549238420
 H          0.9091055892        3.4082575274        0.2388542188
 H         -0.9290736733        5.0751289013        0.3813546340
 H         -3.2723026087        4.3570625364        0.3336673238
 H         -3.8649521401        1.9702233840        0.1727087039
 H         -3.9267501436        0.1763895421        1.7060124226
 H         -6.0067449231       -1.1339222525        1.5814019691
 H         -6.2762493218       -2.8714095771       -0.1521649064
 H         -4.4617093250       -3.2766680301       -1.7774251999
 H         -2.3997303464       -1.9322860195       -1.6892407840
  41
  -69.8359422500000       0.167470183996252      !
 C          5.3681877610       -2.7810812360       -0.1188454998
 O          3.9831862478       -2.5316183246       -0.0958562835
 C          3.5555878395       -1.2382045283       -0.0499194300
 C          4.4153770579       -0.1181342865       -0.0153274767
 C          3.9230232498        1.2027125892        0.0199476976
 O          4.6021130474        2.2228332551        0.0433234650
 O          2.5413739046        1.3860882649        0.0315756983
 C          1.7013396680        0.3303245849        0.0078653522
 C          2.1690854137       -1.0233562116       -0.0386173157
 C          1.2177945682       -2.0915981782       -0.0981156961
 C         -0.1349969614       -1.8570295528       -0.0896915684
 C         -0.5804285742       -0.5382606152       -0.0022845263
 C          0.3454123194        0.5599790060        0.0182463710
 C         -0.4475220662        1.7625739541        0.0299177918
 C         -0.1237758662        3.1055790660        0.0698257814
 C         -1.1637314857        4.0342640902        0.1078029643
 C         -2.4872425409        3.6283398426        0.1262323586
 C         -2.8310473940        2.2797524166        0.0861638163
 C         -1.8018779035        1.3533705269        0.0124636850
 N         -1.8631003295       -0.0311162959       -0.0077192350
 C         -3.0313228565       -0.7858672232       -0.0039297081
 C         -3.1650615782       -1.8737125806        0.8652963689
 C         -4.3260737650       -2.6186063994        0.8640668444
 C         -5.3656625359       -2.2992969452        0.0014947134
 C         -5.2351921031       -1.2228878767       -0.8649697597
 C         -4.0807304357       -0.4677152787       -0.8726489893
 H          5.8419112809       -2.3395813346       -1.0012311714
 H          5.4680094864       -3.8645080813       -0.1596031338
 H          5.8594198468       -2.4054922490        0.7840795604
 H          5.4860878426       -0.2197522870       -0.0182669165
 H          1.6063482900       -3.0926267200       -0.1649482540
 H         -0.8328694836       -2.6763207797       -0.1661844591
 H          0.9081260315        3.4158855528        0.0776519062
 H         -0.9300096041        5.0876507312        0.1366202996
 H         -3.2725236563        4.3669868489        0.1766471413
 H         -3.8651245516        1.9750387860        0.1298101056
 H         -2.3685253470       -2.0962097041        1.5591557359
 H         -4.4266765346       -3.4489987338        1.5467604385
 H         -6.2713209790       -2.8854500513        0.0041621236
 H         -6.0363233804       -0.9780613298       -1.5459854475
 H         -3.9608580651        0.3444112739       -1.5738125230
  41
  -69.8359392200000       0.166934079182790      !
 C          5.3599234945       -2.7747333278       -0.3234908113
 O          3.9763982716       -2.5243997531       -0.2668878050
 C          3.5515518043       -1.2328555933       -0.1721396053
 C          4.4122905726       -0.1135778257       -0.1380417207
 C          3.9229339586        1.2040725481       -0.0257848076
 O          4.6033669054        2.2224439660        0.0194725522
 O          2.5423626244        1.3859937172        0.0404494870
 C          1.7005926216        0.3324143842       -0.0077213838
 C          2.1664300725       -1.0191950236       -0.1066182135
 C          1.2158147872       -2.0897449721       -0.1109990693
 C         -0.1359619221       -1.8565291104       -0.0565494589
 C         -0.5810213611       -0.5355144022       -0.0108447625
 C          0.3455543516        0.5606649646        0.0483227645
 C         -0.4461635420        1.7577093329        0.1734079836
 C         -0.1218084326        3.0984632799        0.2580558517
 C         -1.1611345885        4.0254223118        0.3351828408
 C         -2.4853236884        3.6219006678        0.3065951968
 C         -2.8298234731        2.2756170276        0.2226476989
 C         -1.8003923664        1.3472784425        0.1829580093
 N         -1.8626573725       -0.0326210085        0.0713916457
 C         -3.0298720688       -0.7861352118        0.0086408431
 C         -4.0693469050       -0.5590239886        0.9168863697
 C         -5.2223777082       -1.3132223613        0.8473334568
 C         -5.3612477856       -2.2985320775       -0.1202353648
 C         -4.3312672853       -2.5277072428       -1.0221936709
 C         -3.1720181351       -1.7828202965       -0.9627755970
 H          5.4570574182       -3.8571516037       -0.3880665171
 H          5.8706447112       -2.4177491755        0.5764050275
 H          5.8161014115       -2.3165799131       -1.2067100606
 H          5.4817667937       -0.2143778604       -0.1921194370
 H          1.6046736330       -3.0922307098       -0.1470252681
 H         -0.8331693218       -2.6796937956       -0.0336697838
 H          0.9100779397        3.4090908148        0.2564163516
 H         -0.9269315970        5.0767929042        0.4045545043
 H         -3.2706438993        4.3612467661        0.3459198214
 H         -3.8649916762        1.9757245349        0.1727886275
 H         -3.9428744755        0.1801963497        1.6934464993
 H         -6.0158843372       -1.1397192093        1.5585253441
 H         -6.2654073344       -2.8848731323       -0.1702999941
 H         -4.4385077791       -3.2863805868       -1.7827364542
 H         -2.3840128264       -1.9315960897       -1.6855551050
  41
  -69.8359342000000       0.166049653474832      !
 C          5.3597640635       -2.7699277187       -0.3735561312
 O          3.9774105686       -2.5225881249       -0.2841041185
 C          3.5525250514       -1.2323217079       -0.1734398733
 C          4.4131140577       -0.1133256709       -0.1290763432
 C          3.9235387718        1.2031238342       -0.0044688463
 O          4.6041524425        2.2207372642        0.0535756604
 O          2.5428777958        1.3847701467        0.0583382561
 C          1.7013703593        0.3312873913        0.0033459411
 C          2.1675846490       -1.0197762543       -0.1013847707
 C          1.2171878638       -2.0905532283       -0.1087830861
 C         -0.1347003618       -1.8578808860       -0.0533250545
 C         -0.5801737474       -0.5370912753       -0.0061253785
 C          0.3461232291        0.5593421753        0.0546613661
 C         -0.4460721777        1.7567787439        0.1724357624
 C         -0.1224663646        3.0982674013        0.2485154627
 C         -1.1624618273        4.0255056309        0.3136511605
 C         -2.4863627048        3.6213504525        0.2830114449
 C         -2.8301412025        2.2743381890        0.2090057302
 C         -1.8001855221        1.3461394264        0.1793795991
 N         -1.8619577235       -0.0341935241        0.0729377988
 C         -3.0299118754       -0.7868630254        0.0119624767
 C         -4.0688363705       -0.5557790746        0.9198564510
 C         -5.2233651758       -1.3079794283        0.8521211284
 C         -5.3639118095       -2.2954955797       -0.1129746991
 C         -4.3344945837       -2.5284002155       -1.0146959813
 C         -3.1739425863       -1.7852702541       -0.9572908220
 H          5.8882385246       -2.4307868964        0.5227394231
 H          5.7976352173       -2.2929256475       -1.2559575825
 H          5.4566040996       -3.8506189803       -0.4624715360
 H          5.4827685976       -0.2135338880       -0.1809066709
 H          1.6063991947       -3.0928015238       -0.1474558608
 H         -0.8315428183       -2.6813091564       -0.0310196530
 H          0.9093873388        3.4092802450        0.2491248854
 H         -0.9289032152        5.0776128152        0.3749549872
 H         -3.2721280113        4.3608348336        0.3126742429
 H         -3.8650138539        1.9735188799        0.1567002311
 H         -3.9406205656        0.1846891954        1.6949823761
 H         -6.0160393445       -1.1323096963        1.5638894748
 H         -6.2692354052       -2.8801006239       -0.1618245610
 H         -4.4431129940       -3.2887864064       -1.7734230188
 H         -2.3854321672       -1.9385364941       -1.6783926753
  41
  -69.8359198300000       0.163543760210459      !
 C          5.3684845103       -2.7806798591       -0.1253357720
 O          3.9839447882       -2.5314555363       -0.0854916165
 C          3.5561677977       -1.2378667906       -0.0482638543
 C          4.4157697496       -0.1171749946       -0.0326191349
 C          3.9235421202        1.2037601351       -0.0036560904
 O          4.6023023128        2.2243289887        0.0020727818
 O          2.5416329490        1.3866413261        0.0212460279
 C          1.7017377736        0.3305680486        0.0124898251
 C          2.1697552467       -1.0233027551       -0.0271641959
 C          1.2186878830       -2.0925169519       -0.0710631645
 C         -0.1341650187       -1.8583200991       -0.0595037145
 C         -0.5796940668       -0.5390671833        0.0179194690
 C          0.3458314036        0.5597294618        0.0298144698
 C         -0.4475722864        1.7621795954        0.0394268892
 C         -0.1251019353        3.1055941212        0.0751580452
 C         -1.1660250208        4.0332631741        0.1140538540
 C         -2.4893087729        3.6261914953        0.1358515203
 C         -2.8320049743        2.2773913005        0.0984374564
 C         -1.8016617925        1.3520013421        0.0253466841
 N         -1.8623178942       -0.0320394262        0.0097389751
 C         -3.0312867914       -0.7860271104        0.0001423705
 C         -3.1786459079       -1.8722255064        0.8689435730
 C         -4.3403257656       -2.6161491012        0.8507673819
 C         -5.3661523128       -2.2976115695       -0.0283089095
 C         -5.2218738791       -1.2224077567       -0.8939893433
 C         -4.0671511486       -0.4678093397       -0.8848713311
 H          5.4683086287       -3.8643688643       -0.1551815114
 H          5.8730814758       -2.3944577815        0.7657169262
 H          5.8290277941       -2.3491688068       -1.0197528723
 H          5.4864296655       -0.2190385344       -0.0467949541
 H          1.6074419503       -3.0939666722       -0.1298449616
 H         -0.8319531572       -2.6785799279       -0.1253116780
 H          0.9065143588        3.4171517294        0.0796903946
 H         -0.9334135162        5.0869391197        0.1413157638
 H         -3.2751102757        4.3642227756        0.1878625974
 H         -3.8655771234        1.9710032959        0.1440968500
 H         -2.3926778852       -2.0947913118        1.5744183447
 H         -4.4522905999       -3.4454719908        1.5328574720
 H         -6.2712020752       -2.8845983430       -0.0397663553
 H         -6.0116331859       -0.9788419627       -1.5887190175
 H         -3.9358637463        0.3440318247       -1.5840945357
