  41
        -69.83594691
 C          5.3674325135       -2.7829177426       -0.0948735806
 O          3.9828500731       -2.5320421670       -0.0892115280
 C          3.5555611226       -1.2384470387       -0.0479609913
 C          4.4154717035       -0.1187462542       -0.0056386775
 C          3.9235727767        1.2023955539        0.0242181023
 O          4.6032385564        2.2220087568        0.0508483557
 O          2.5419513138        1.3864423259        0.0248246487
 C          1.7014857018        0.3309349275       -0.0023000057
 C          2.1691904528       -1.0228370909       -0.0481105480
 C          1.2180563282       -2.0908674132       -0.1155813684
 C         -0.1346583010       -1.8562264743       -0.1095174196
 C         -0.5800074955       -0.5377415696       -0.0177818698
 C          0.3456348926        0.5607000662        0.0056655536
 C         -0.4478290745        1.7629665284        0.0231790996
 C         -0.1247514142        3.1059308771        0.0684726093
 C         -1.1650874868        4.0338734587        0.1149887636
 C         -2.4883948275        3.6270332799        0.1359696524
 C         -2.8316105420        2.2785978680        0.0896438117
 C         -1.8020774504        1.3531463900        0.0077218313
 N         -1.8627556179       -0.0310514006       -0.0180399862
 C         -3.0306859040       -0.7862899235       -0.0078145398
 C         -3.1589211356       -1.8737334984        0.8627014693
 C         -4.3205933422       -2.6174185191        0.8704725859
 C         -5.3661355348       -2.2975148858        0.0152264781
 C         -5.2406814554       -1.2221696745       -0.8531870519
 C         -4.0856530856       -0.4679382984       -0.8695553127
 H          5.8480926792       -2.4075362776        0.8139357728
 H          5.8527894966       -2.3422697419       -0.9712856345
 H          5.4666690498       -3.8664197703       -0.1340650817
 H          5.4861193771       -0.2212131550        0.0007176450
 H          1.6070574079       -3.0914641264       -0.1853941030
 H         -0.8326845324       -2.6750710447       -0.1901240242
 H          0.9070420676        3.4168384883        0.0745380077
 H         -0.9318894383        5.0871446516        0.1498606476
 H         -3.2738904742        4.3648235271        0.1950632755
 H         -3.8653141713        1.9729126248        0.1358556105
 H         -2.3574297671       -2.0967391258        1.5506102910
 H         -4.4171510022       -3.4475199545        1.5539368413
 H         -6.2722231539       -2.8828853473        0.0249857701
 H         -6.0464364755       -0.9769432346       -1.5285059502
 H         -3.9698374623        0.3437159921       -1.5719466169
