  32
  -58.3033892930000        1.00000000000000      !
 N          6.0239588999        2.0059927384       -0.0133245136
 C          5.0429168451        1.4131276923       -0.0072459381
 C          3.8238120971        0.7027964607       -0.0020032283
 C          2.6154040751        1.3992612568       -0.0009291506
 C          1.3959248802        0.7304544773        0.0023712135
 N          0.2289975994        1.3660760696        0.0036630761
 C         -0.9102522380        0.7228548515        0.0040580870
 C         -0.9102871512       -0.7229421724        0.0027380189
 N          0.2289731517       -1.3662206655        0.0036792728
 C          1.3959011068       -0.7306714533        0.0037751278
 C          2.6153923704       -1.3995265463        0.0047946923
 C          3.8238097450       -0.7031236851        0.0019801375
 C          5.0431120038       -1.4131928884        0.0034884158
 N          6.0249479499       -2.0051934228        0.0042813021
 C         -2.2807161103       -1.1708520340       -0.0000954834
 C         -2.9093574468       -2.3954279074       -0.0042374536
 C         -4.3155706844       -2.4153084620       -0.0078011190
 C         -5.0840831262       -1.2741239352       -0.0069101534
 C         -4.4684711659        0.0000336254       -0.0023755615
 C         -5.0840451249        1.2742097422       -0.0008538260
 C         -4.3155064043        2.4153693287        0.0030608917
 C         -2.9092833727        2.3954411684        0.0050942067
 C         -2.2806877984        1.1708465722        0.0035928118
 C         -3.0759511749        0.0000151546        0.0005275775
 H          2.6118905412        2.4780727406       -0.0029833319
 H          2.6117892717       -2.4783361883        0.0072699369
 H         -2.3516062176       -3.3189839821       -0.0050261807
 H         -4.8074075306       -3.3773023579       -0.0112754593
 H         -6.1616715374       -1.3454180624       -0.0097806009
 H         -6.1616376888        1.3455383371       -0.0027054385
 H         -4.8073246910        3.3773770156        0.0044539128
 H         -2.3515296674        3.3189956830        0.0075858729
