69
 energy: -111.021126664919 gnorm: 0.000103848402 xtb: 6.7.1 (edcfbbe)
C            6.67086705448418        1.54144678962204        0.84617475791152
C            6.09873558371620        0.31509066713093        1.14902532146685
C            4.79045110945516        0.05331052164470        0.78968122533328
C            4.04087959542529        1.02017534957668        0.12085820785217
C            2.65396030199024        0.74783815767794       -0.25895385523353
N            1.93424930312612        1.75142981729065       -0.75276230058544
C            0.67166565874051        1.46518524923332       -1.06149294458502
C           -0.16860294986934        2.53212108738643       -1.60499196618034
C            0.32451510717217        3.83070709907857       -1.71798835229062
C           -0.48330155807409        4.83819155261079       -2.21035258458508
C           -1.78670863074389        4.55997529796615       -2.59352393828852
C           -2.28226904304860        3.26879470644407       -2.48680828098463
C           -1.47906023928585        2.25751482381564       -1.99579474638276
N            0.12016337103012        0.26817892836939       -0.90667085976956
C            0.92013956007790       -0.66741683199558       -0.40822641021006
N            0.38859456707435       -1.92429365885212       -0.26516988900620
C            1.06647416942774       -3.08997980935395       -0.63083792104406
C            2.42601371094906       -3.32189120219687       -0.74088376489900
C            2.83579460288439       -4.58028605831891       -1.14890308718883
C            1.91623214444541       -5.58089960888161       -1.44721418034054
C            0.55727113003486       -5.34701862453439       -1.35284093423707
C            0.12577004956431       -4.09295126805492       -0.94168805461042
C           -1.18214163774477       -3.52572043742950       -0.73419387931380
C           -2.45675667732275       -4.06391407665128       -0.91489949470234
C           -3.55598805162767       -3.28872992220391       -0.62516128830440
C           -3.37132153374143       -2.02229782852307       -0.07049517867246
C           -4.31348451576746       -1.06256565579599        0.42952751301185
C           -5.70263484793545       -1.03329746138743        0.47199642007118
C           -6.32269574960991        0.03441764293799        1.08800653546413
C           -5.57340929618616        1.05038232660310        1.67784957351094
C           -4.19144067278760        1.04052192986432        1.64868525041253
C           -3.56098845457020       -0.01060089353817        0.99715341514009
N           -2.21004326477339       -0.27451072425023        0.83442298054282
C           -1.18518135377426        0.41309143653787        1.49939157552431
C           -1.11110258432114        1.80264461739950        1.44737218699981
C           -0.09420854042663        2.46618574296775        2.10780878455379
C            0.85686213246028        1.75776499865908        2.82458489711905
C            0.77810358726758        0.37677157918654        2.88924540208499
C           -0.24126862432433       -0.29510519543146        2.23972307323369
C           -2.08291864278344       -1.48443830436076        0.17403147702847
C           -0.98136601786224       -2.20756751612085       -0.27465363066629
N            2.19479759016870       -0.48756878077823       -0.08154243669235
C            4.62099029720097        2.25233414487204       -0.17706959528781
C            5.92988400437947        2.50875319413804        0.18415883818451
H            7.69356818501271        1.74350748934733        1.12783111635391
H            6.67468077701795       -0.43738453228289        1.66715040723074
H            4.32831511990697       -0.89320379794249        1.02503227835596
H            1.33892871066125        4.02855378761656       -1.40845600403723
H           -0.09828276463124        5.84364605444382       -2.29475187036470
H           -2.41664806891225        5.34925523888669       -2.97612409558065
H           -3.29743604306533        3.05150220605055       -2.78471403990050
H           -1.84749094914825        1.24706325059014       -1.90396499830007
H            3.13651527443857       -2.54331555266370       -0.51633887531683
H            3.89221587857712       -4.78711536421703       -1.23461922814558
H            2.27236449904587       -6.55136035724175       -1.75884888894958
H           -0.15698112987534       -6.12010289431424       -1.59112376970721
H           -2.56730006367099       -5.07060594842076       -1.28557309817226
H           -4.55516141728379       -3.66149436844742       -0.78723616746449
H           -6.27879365642184       -1.83391358850557        0.03392938344184
H           -7.40067473417980        0.08054265957393        1.12761253004572
H           -6.08252340005215        1.86336998137513        2.17408871844376
H           -3.62849345342265        1.82267314513173        2.13340343158015
H           -1.82328823620355        2.35390919230901        0.85312827406891
H           -0.03626323384531        3.54305722338655        2.04952950919348
H            1.65776903911788        2.27901368322682        3.32708426017543
H            1.51313891359356       -0.18284339730341        3.44919007170223
H           -0.30889975084689       -1.37193222295269        2.30316973165516
H            4.02991692009631        2.99136388343059       -0.69508885141436
H            6.37530183958423        3.46403842654978       -0.05088668624844
