69
 energy: -110.938541632712 gnorm: 0.000026922748 xtb: 6.7.1 (edcfbbe)
C           -0.59987337153536       -4.75074248179827       -3.03784449403002
C            0.72039247975248       -4.76410892855843       -2.60265354306352
C            1.26661890306928       -3.65578403273927       -1.99480245268482
C            0.49771679147147       -2.49624400793970       -1.80671683154329
C            1.05222335410280       -1.34104410759892       -1.15978139677973
N            2.30794066296580       -1.33974932880372       -0.75630159535154
C            2.81067424745311       -0.27572534286336       -0.15012984014291
C            4.17113251529814       -0.27057033591811        0.29751959889404
C            5.00687464511543       -1.37616402547471        0.06836129515817
C            6.31305794192775       -1.36722030235787        0.50284464990213
C            6.82418803724678       -0.26285245653301        1.17522023429097
C            6.00775670543927        0.83622185033386        1.40992195873766
C            4.69919913784307        0.83799797123865        0.97960179554622
N            2.02930755369654        0.83595060061090        0.08305106844858
C            0.79390932090474        0.76097021033326       -0.34571888616907
N           -0.02219871911906        1.88544494434092       -0.17863368687416
C            0.37858583131523        3.15956395697584       -0.55972165412841
C            1.65675124492018        3.64918085622270       -0.77201252899803
C            1.78254735489953        4.97711843104212       -1.14433807826557
C            0.66544854654710        5.78921576814867       -1.31638911606045
C           -0.61407423125009        5.29671568545667       -1.12272027092111
C           -0.76168902910535        3.97093813957882       -0.74255425764463
C           -1.90691705653760        3.14037734553946       -0.46860517818009
C           -3.26963758249970        3.39587507610932       -0.55037826678865
C           -4.16856204289607        2.38230262022344       -0.25756951645127
C           -3.69173368368392        1.15706167025222        0.18701497254088
C           -4.37750567580182       -0.02300991829337        0.64277175905207
C           -5.71862199155387       -0.36621916924124        0.73170202783710
C           -6.05008485994122       -1.59555611619326        1.27480247113786
C           -5.06566891331799       -2.46060264660762        1.74385665165431
C           -3.72223355079919       -2.13534988024078        1.66908779145140
C           -3.38262765718875       -0.92006118230873        1.09113485503521
N           -2.13478004657231       -0.34471873529740        0.90743355280680
C           -0.94622054857927       -0.86045192927106        1.44419805584069
C           -0.15501960649352       -0.05196425622719        2.26137389176647
C            0.99839827595347       -0.55997696799686        2.82501592842392
C            1.37370512205260       -1.87323214382726        2.58439303617315
C            0.57992540484066       -2.68154252682371        1.78508908274391
C           -0.57923415514807       -2.18603647859479        1.21946209465631
C           -2.30112530560665        0.89416968746762        0.34053494208320
C           -1.39688070642964        1.86865262299924       -0.09399969602812
N            0.23244485203339       -0.24470245096692       -0.97980255563352
C           -0.83311785050499       -2.49262546530726       -2.25582966631747
C           -1.36966679521187       -3.60793644188203       -2.86101804184727
H           -1.02335511743454       -5.62355474202335       -3.51195566821129
H            1.32246027090590       -5.65101734436343       -2.74212724464078
H            2.29010977263571       -3.65677199092968       -1.65077706931185
H            4.59978371182272       -2.22839928979974       -0.45512718359001
H            6.94586589667062       -2.22426824255704        0.31945470302102
H            7.84982175916084       -0.26007953460508        1.51288366149793
H            6.40183167361807        1.69596310991295        1.93364067828280
H            4.05548164998881        1.68552689690495        1.16334323670871
H            2.51657816325807        3.00966907952395       -0.64634206799687
H            2.76776915329950        5.38662227890742       -1.30884097442931
H            0.80210671062723        6.81864435204259       -1.61087068006733
H           -1.47756783658733        5.92809331687571       -1.26238823588093
H           -3.61761998699234        4.37023496019992       -0.85362911422793
H           -5.23031969544395        2.54712289147920       -0.34643639457686
H           -6.48313801429990        0.31247628764744        0.38772183047899
H           -7.08708876994232       -1.88532142551883        1.34835375442525
H           -5.35378637011547       -3.40420348281980        2.18151389217851
H           -2.97047161864895       -2.80336161593213        2.05827415954736
H           -0.45569857322385        0.96795242154226        2.45600803319359
H            1.61003855430295        0.07182672132801        3.45149271426381
H            2.28376942146801       -2.26239985308604        3.01465091034758
H            0.87240902328680       -3.70196547373538        1.58821817438810
H           -1.17395439571836       -2.80281747530329        0.56365496210408
H           -1.42086716462621       -1.59727369588774       -2.11757222560753
H           -2.39614747270485       -3.59278671055199       -3.19988575351642
