  69
       -110.89449357
 C         -0.6652570960       -4.7374846566       -2.9759003145
 C          0.6630288867       -4.7522378261       -2.5677311195
 C          1.2258432852       -3.6403592177       -1.9828715954
 C          0.4632691165       -2.4777475122       -1.7945581136
 C          1.0322075590       -1.3238143258       -1.1622091065
 N          2.2841416266       -1.3221082679       -0.7583874859
 C          2.8052295543       -0.2658325330       -0.1580691929
 C          4.1505057776       -0.2875674176        0.3261963607
 C          4.9610078821       -1.4166092310        0.1306446732
 C          6.2517598370       -1.4369214239        0.6072775682
 C          6.7680587262       -0.3407767346        1.2877760479
 C          5.9745796782        0.7808586796        1.4880327505
 C          4.6812784828        0.8133015201        1.0157825754
 N          2.0380073159        0.8605053912        0.0493655933
 C          0.7973319563        0.7878955253       -0.3588953193
 N         -0.0173844222        1.9080667780       -0.1840853605
 C          0.3733647385        3.1871606158       -0.5562327126
 C          1.6489060946        3.6901337297       -0.7468531973
 C          1.7632797382        5.0203099150       -1.1131766934
 C          0.6392817712        5.8191787835       -1.2995986437
 C         -0.6368966670        5.3122620309       -1.1256264379
 C         -0.7749044433        3.9841133075       -0.7507875329
 C         -1.9133170285        3.1407152492       -0.4907895000
 C         -3.2793393404        3.3777327110       -0.5839131654
 C         -4.1655312919        2.3540058413       -0.2960606395
 C         -3.6771166461        1.1352302643        0.1571489249
 C         -4.3498210421       -0.0503221246        0.6125682998
 C         -5.6870980000       -0.4093527136        0.6969111869
 C         -6.0073686245       -1.6382328193        1.2443938317
 C         -5.0151101282       -2.4886908548        1.7233773134
 C         -3.6758737842       -2.1491288878        1.6524375389
 C         -3.3461490671       -0.9338421425        1.0697253013
 N         -2.1055839744       -0.3464150835        0.8905180956
 C         -0.9073950589       -0.8517100670        1.4162015139
 C         -0.1024304181       -0.0288617664        2.2065705141
 C          1.0856048532       -0.5113023189        2.7171317470
 C          1.4798830652       -1.8152173208        2.4560482846
 C          0.6628428135       -2.6442171309        1.7023707791
 C         -0.5301529344       -2.1743698853        1.1882953399
 C         -2.2853660676        0.8897881814        0.3189599995
 C         -1.3934146399        1.8757949302       -0.1116297720
 N          0.2172747532       -0.2255473102       -0.9649865727
 C         -0.8753764087       -2.4702684527       -2.2164388824
 C         -1.4274055384       -3.5903187839       -2.7977832852
 H         -1.1022125745       -5.6135929664       -3.4317593878
 H          1.2572415551       -5.6438027691       -2.7100070200
 H          2.2553176869       -3.6404534835       -1.6586744151
 H          4.5471335447       -2.2620602954       -0.3975902077
 H          6.8689757500       -2.3102400637        0.4519081970
 H          7.7816037380       -0.3618415219        1.6598310606
 H          6.3752689752        1.6332563317        2.0183994741
 H          4.0523230424        1.6757911908        1.1741443925
 H          2.5137324109        3.0597805137       -0.6113592285
 H          2.7449290807        5.4437478041       -1.2627294662
 H          0.7673083355        6.8517281941       -1.5876729947
 H         -1.5060741237        5.9343897203       -1.2753233042
 H         -3.6380487547        4.3473388717       -0.8916974050
 H         -5.2294833348        2.5034540362       -0.3933131179
 H         -6.4577379200        0.2594569839        0.3456492919
 H         -7.0414742615       -1.9398456120        1.3148489935
 H         -5.2955806218       -3.4329230851        2.1650147939
 H         -2.9193511658       -2.8070489688        2.0502797076
 H         -0.4164540133        0.9846327325        2.4127083658
 H          1.7124763138        0.1349748694        3.3123862751
 H          2.4217327192       -2.1806200797        2.8350957583
 H          0.9663127092       -3.6585527287        1.4918785904
 H         -1.1404304945       -2.8043796994        0.5593978084
 H         -1.4562810559       -1.5710908196       -2.0756672170
 H         -2.4602504985       -3.5763979055       -3.1167683767
