  69
       -110.97746186
 C          6.8290295180        0.5359730090        1.0715576272
 C          6.2985916964        1.5643618065        0.3078426206
 C          4.9831679370        1.5092988190       -0.1103066933
 C          4.1877352278        0.4174696929        0.2320880572
 C          2.7935378948        0.3617564045       -0.2003961914
 N          2.2665848394        1.4491167213       -0.7528496742
 C          0.9823550187        1.3716680629       -1.0862658107
 C          0.3471530815        2.5398316286       -1.6905909829
 C          1.0589313602        3.7284341196       -1.8381529187
 C          0.4430195682        4.8382700704       -2.3836456978
 C         -0.8831415962        4.7716588712       -2.7832174659
 C         -1.5949852488        3.5901167620       -2.6399775948
 C         -0.9851530919        2.4760250455       -2.0972166013
 N          0.2268950979        0.2989446868       -0.8847601374
 C          0.8470881346       -0.7424821168       -0.3416494713
 N          0.0966880135       -1.8734076971       -0.1528471926
 C          0.5494047963       -3.1577690833       -0.4619510704
 C          1.8437687493       -3.6368256638       -0.5495519742
 C          2.0145888655       -4.9640848650       -0.9045986343
 C          0.9273250232       -5.7898225172       -1.1717303120
 C         -0.3657392872       -5.3083665478       -1.0971483338
 C         -0.5600478250       -3.9815418667       -0.7391242831
 C         -1.7411917500       -3.1755721256       -0.5663269405
 C         -3.0931875379       -3.4765104711       -0.7313868589
 C         -4.0297461778       -2.5004014754       -0.4815268149
 C         -3.6146402560       -1.2662523403        0.0177483848
 C         -4.3627770467       -0.1293395554        0.4689500547
 C         -5.7220544966        0.1565750009        0.5029737625
 C         -6.1333523012        1.3458379666        1.0682386868
 C         -5.2083995246        2.2312114018        1.6174350511
 C         -3.8524229110        1.9670614670        1.5954635172
 C         -3.4277342622        0.7911509990        0.9925756398
 N         -2.1507919154        0.2782427407        0.8493816495
 C         -1.0093219841        0.8107439057        1.4667061629
 C         -0.6882628329        2.1579915551        1.3244074797
 C          0.4613945234        2.6584436749        1.9057532086
 C          1.2973930900        1.8288901064        2.6353943419
 C          0.9661172036        0.4950476459        2.8009922235
 C         -0.1866507445       -0.0132640781        2.2306900437
 C         -2.2486610255       -0.9627222914        0.2448798257
 C         -1.3014359134       -1.8980412040       -0.1628908747
 N          2.1279826934       -0.7721497821        0.0016178485
 C          4.7247280026       -0.6124473196        1.0023837332
 C          6.0402689514       -0.5500832141        1.4190457237
 H          7.8580170387        0.5813904586        1.3975241603
 H          6.9152000719        2.4093455231        0.0385015980
 H          4.5521348204        2.2984526912       -0.7065730300
 H          2.0879796989        3.7606088032       -1.5152676776
 H          0.9946633154        5.7601255745       -2.4972411179
 H         -1.3631262267        5.6415183181       -3.2074861245
 H         -2.6283273741        3.5401308856       -2.9512920464
 H         -1.5226188654        1.5474493932       -1.9780327961
 H          2.6849979838       -2.9938726670       -0.3482999273
 H          3.0143372533       -5.3663181016       -0.9736429271
 H          1.0995862280       -6.8208009687       -1.4433274905
 H         -1.2096752969       -5.9462371056       -1.3117190090
 H         -3.3880847031       -4.4608718387       -1.0594951344
 H         -5.0814434843       -2.6884995233       -0.6325736311
 H         -6.4373868045       -0.5435201726        0.0986648976
 H         -7.1844290102        1.5912377639        1.1015092563
 H         -5.5593630192        3.1438353074        2.0762957631
 H         -3.1542751513        2.6525950110        2.0498475877
 H         -1.3112117477        2.7948642553        0.7148065488
 H          0.7151795875        3.6991819481        1.7689679721
 H          2.2058963624        2.2192648834        3.0684556971
 H          1.6098686340       -0.1570949799        3.3723768137
 H         -0.4498117258       -1.0522945896        2.3675415464
 H          4.0940752841       -1.4464628603        1.2701205547
 H          6.4542410086       -1.3476443330        2.0184962615
