69
 energy: -110.938539553531 gnorm: 0.000059990924 xtb: 6.7.1 (edcfbbe)
C            6.82241568268868        0.52116648772011        1.17284894665489
C            6.26499121624190        1.60907006809179        0.51047887858058
C            4.95538685045810        1.57205915078067        0.08805200150447
C            4.16285749201284        0.43539409031105        0.31889535079948
C            2.80054630828709        0.39180830585779       -0.12089668211347
N            2.25344121879681        1.44161093551029       -0.71357390731038
C            0.99890177524783        1.39512554965648       -1.11786032551055
C            0.39542671253907        2.53533311269517       -1.74749003354474
C            1.11151261290013        3.73186488390064       -1.91050731456342
C            0.51790791164313        4.82520280055387       -2.50084780530770
C           -0.79839347662038        4.75969992874568       -2.94316140193503
C           -1.51612457921324        3.58001154385904       -2.79119186743854
C           -0.93185915785626        2.47936472812540       -2.20362183713305
N            0.22742935112839        0.26179336973777       -0.95621376460303
C            0.82899309658169       -0.72630108076656       -0.33075483081460
N            0.06133718308880       -1.88606859506986       -0.18034748126381
C            0.52288234506691       -3.14058738149885       -0.55885821556738
C            1.82452813188275       -3.57597385425257       -0.74449992688006
C            2.01356359574205       -4.89636263048444       -1.11700611936714
C            0.93521122221981       -5.75323192341128       -1.31644857336683
C           -0.36766072348390       -5.31446888125222       -1.15117820585194
C           -0.57847320176093       -3.99748207085142       -0.77018896473125
C           -1.76300604576860       -3.21686486603346       -0.51685058137110
C           -3.11196929943919       -3.52785843349668       -0.62972878395330
C           -4.05807866891311       -2.55440542641357       -0.34985968700530
C           -3.64206098204694       -1.31483083138649        0.11559452403053
C           -4.38593270029099       -0.17019570652080        0.57039948769937
C           -5.74178755106419        0.11601088812248        0.63316069955986
C           -6.13644459239782        1.32143800374173        1.18741186307274
C           -5.19951276099537        2.21829726839584        1.69252566300825
C           -3.84231321962696        1.95047522168003        1.64287141157488
C           -3.43924966296106        0.76015327873550        1.05383274533602
N           -2.16479827030924        0.24003502761879        0.88924301494726
C           -1.00842755026344        0.79932028190381        1.45172439071135
C           -0.69759952916322        2.14329153201489        1.25245454256199
C            0.43245822126909        2.67985277401741        1.83917659435223
C            1.25253940885225        1.89425712293484        2.63446070937647
C            0.93217783284510        0.56232392930140        2.85073012694568
C           -0.19216400156619        0.01376179931063        2.26670011753123
C           -2.26724909131856       -0.99668716433726        0.30268298010685
C           -1.31455740800989       -1.92807547650737       -0.12275556941469
N            2.06486984069823       -0.75243157104703        0.10237502698949
C            4.73717823605337       -0.65575913583031        0.99161606858991
C            6.04871594238015       -0.60786810355551        1.41011363216988
H            7.85077780982367        0.55436705898351        1.50047474641966
H            6.86443777136444        2.48933877925316        0.32500781381476
H            4.51273749572310        2.41069718449132       -0.42846416806905
H            2.13212677390506        3.77350173864870       -1.56053464009734
H            1.07949016041402        5.74103190454438       -2.62078236221265
H           -1.25916115896089        5.62083132189600       -3.40366876053807
H           -2.53934300445848        3.52444717789656       -3.13568079315431
H           -1.47870885568690        1.55577108913200       -2.08485957444390
H            2.65369270492841       -2.90136054961264       -0.59847350455874
H            3.01839014128117       -5.26426146628029       -1.25983487815260
H            1.12072998970612       -6.77534185360966       -1.60975522290707
H           -1.20084316528832       -5.98055699305825       -1.31222764189369
H           -3.41278112270633       -4.51351076373058       -0.94657485701209
H           -5.10996084942440       -2.76188036883188       -0.46334572639389
H           -6.46916872910422       -0.58808344431273        0.26079482296537
H           -7.18601352789473        1.56697413235750        1.24124596830418
H           -5.53625437503927        3.14179651901867        2.13824517418454
H           -3.12815393028683        2.64302461270224        2.05899169136828
H           -1.31106503293974        2.74402998715681        0.59912392751976
H            0.68180747033145        3.71513746726603        1.66161151542181
H            2.14062500731230        2.31540154485109        3.08026270586258
H            1.56422161766484       -0.05216508213070        3.47419337106081
H           -0.45024797282895       -1.02100677519213        2.44303908572477
H            4.12690916992949       -1.52724433661625        1.17746451918807
H            6.47872546033882       -1.45482043720524        1.92635322210260
