  53
  -88.9322583729000       0.143232109032741      !
 C         -7.2628481187        2.9131234341       -0.7088993796
 C         -7.9168017918        1.6865418983       -0.6072060761
 C         -7.2193708931        0.5118811726       -0.3938058829
 C         -5.8449548324        0.6065120008       -0.2859788760
 C         -5.1666282083        1.8522963352       -0.3888398098
 C         -5.8899411233        3.0169316364       -0.6025764390
 N         -3.8033350805        1.6831094391       -0.2489788405
 C         -3.6593996590        0.4009323256       -0.0698240208
 N         -2.6126423750       -0.4601970454        0.1326087057
 C         -1.2755217433       -0.0949899638        0.2020197847
 C         -0.9006443177        1.2434433621        0.0472073535
 C          0.4401221622        1.5512273573        0.1207049388
 C          1.3805609892        0.5405701669        0.3452493703
 C          2.8181647198        0.8202085183        0.4328661958
 C          3.2664135610        1.9747380202        1.0889932524
 C          4.6089270987        2.2781669888        1.2048221004
 C          5.5134674283        1.3959973432        0.6411598061
 O          6.8688809930        1.5099179376        0.6416006206
 C          7.3430994631        0.4196690309       -0.0231877757
 C          8.6710042579        0.1173921743       -0.2648629284
 C          8.9385479801       -1.0473958201       -0.9621512430
 C          7.9156514229       -1.8828911357       -1.4034888655
 C          6.5899317329       -1.5802048226       -1.1619052947
 C          6.2976228439       -0.4158857103       -0.4644985515
 C          5.0882318297        0.2286585065       -0.0246052018
 C          3.7368580921       -0.0602629408       -0.1271044240
 C          0.8832128346       -0.7522044630        0.4874386855
 N         -0.3963623290       -1.0650818221        0.4187602739
 C         -3.1604079463       -1.7420939334        0.2527744523
 C         -2.5611819780       -2.9699746472        0.4646935239
 C         -3.3838916879       -4.0835310733        0.5398831140
 C         -4.7626741568       -3.9847454633        0.4089494787
 C         -5.3760459813       -2.7606861888        0.1959950510
 C         -4.5633298666       -1.6465354212        0.1192684212
 N         -4.8428875309       -0.3127394450       -0.0790342766
 H         -7.8493282326        3.8045779904       -0.8755829251
 H         -8.9922650124        1.6527590404       -0.6968632585
 H         -7.7274521854       -0.4369403810       -0.3151110319
 H         -5.3844327892        3.9657214362       -0.6818122515
 H         -1.6545435409        1.9931588159       -0.1288310305
 H          0.7666369725        2.5716896258       -0.0160129640
 H          2.5395977741        2.6356786509        1.5367325768
 H          4.9454492159        3.1655160305        1.7163706833
 H          9.4587288698        0.7681682429        0.0792472951
 H          9.9640750240       -1.3142308642       -1.1682507757
 H          8.1675970435       -2.7830573147       -1.9438925733
 H          5.7975670342       -2.2280713354       -1.5040750525
 H          3.4053246619       -0.9428944845       -0.6519416922
 H          1.5457327488       -1.5842384178        0.6875635327
 H         -1.4925679023       -3.0428525406        0.5668082332
 H         -2.9382628343       -5.0525636456        0.7048303909
 H         -5.3693845651       -4.8748562537        0.4736458626
 H         -6.4460550749       -2.6777648269        0.0933021658
  53
  -88.9322516164000       0.142211695530205      !
 C         -6.5208439629        2.9991623198       -2.0652019736
 C         -7.4067254734        2.0140361562       -1.6325888886
 C         -6.9646700567        0.8913490789       -0.9573202354
 C         -5.6055600035        0.7877920680       -0.7302494769
 C         -4.6918413625        1.7856164036       -1.1685752938
 C         -5.1612741312        2.9035709222       -1.8431194676
 N         -3.3967382114        1.4513991356       -0.8255001419
 C         -3.5158866523        0.3092529720       -0.2105943424
 N         -2.6693102213       -0.5887996943        0.3853008366
 C         -1.2899113758       -0.4583815253        0.4656961362
 C         -0.6568563031        0.6729902920       -0.0588142859
 C          0.7138589740        0.7545278928        0.0504329022
 C          1.4311781794       -0.2744744674        0.6692595481
 C          2.8918067978       -0.2293216837        0.8007323522
 C          3.5041473572       -0.6912318260        1.9737960265
 C          4.8749632184       -0.6710925871        2.1421359359
 C          5.6389974982       -0.1769817039        1.0998509327
 O          6.9947531687       -0.0742545442        1.0630139300
 C          7.3032189367        0.4649699052       -0.1492018132
 C          8.5708777720        0.7513178438       -0.6228338591
 C          8.6646433520        1.3012923081       -1.8890294637
 C          7.5315519974        1.5569449954       -2.6571137101
 C          6.2661605194        1.2702790286       -2.1835888670
 C          6.1477846979        0.7176216853       -0.9153729150
 C          5.0476081821        0.2937062563       -0.0897740763
 C          3.6700034864        0.2688822607       -0.2379683047
 C          0.6884202945       -1.3510630568        1.1468946625
 N         -0.6239708524       -1.4449911137        1.0523283643
 C         -3.4633480146       -1.6350334142        0.8676641229
 C         -3.1280533477       -2.7896335602        1.5503686378
 C         -4.1564654789       -3.6493240131        1.9052533730
 C         -5.4810480943       -3.3739423579        1.5927612164
 C         -5.8308880293       -2.2204168229        0.9094066410
 C         -4.8122569609       -1.3585171907        0.5528037983
 N         -4.8145345408       -0.1532604492       -0.1133411326
 H         -6.9121514513        3.8592422642       -2.5882483357
 H         -8.4619719898        2.1299098000       -1.8295065821
 H         -7.6520271254        0.1294555643       -0.6233098968
 H         -4.4763651098        3.6656401628       -2.1779623043
 H         -1.2441961742        1.4466147508       -0.5256398247
 H          1.2332536290        1.6241637269       -0.3247001831
 H          2.8822146407       -1.0547626189        2.7776888982
 H          5.3379916685       -1.0233669209        3.0497949861
 H          9.4441499005        0.5512598573       -0.0230820137
 H          9.6386744157        1.5373771604       -2.2902788750
 H          7.6485780801        1.9868140611       -3.6406466825
 H          5.3886827661        1.4680036891       -2.7799717717
 H          3.2139041619        0.6106741268       -1.1544671878
 H          1.1732113247       -2.1979883743        1.6147401719
 H         -2.1005557605       -3.0002802737        1.7902886059
 H         -3.9187116300       -4.5565640532        2.4393262220
 H         -6.2535980010       -4.0680679572        1.8864654614
 H         -6.8577158568       -2.0008807400        0.6647718032
  53
  -88.9321773229000       0.131459623992354      !
 C         -7.2636613604        2.9505559823        0.5398517867
 C         -7.9257151921        1.7298990350        0.4215562842
 C         -7.2322356888        0.5442741787        0.2619617312
 C         -5.8530746955        0.6217156773        0.2235775550
 C         -5.1668988000        1.8617742547        0.3419211038
 C         -5.8860169105        3.0373236603        0.5029767353
 N         -3.8006316141        1.6768702099        0.2678420745
 C         -3.6622719745        0.3913397430        0.1103724019
 N         -2.6164651851       -0.4809338213       -0.0435829450
 C         -1.2769150490       -0.1210885150       -0.0954436073
 C         -0.8999171604        1.2127278917        0.0905890989
 C          0.4399444376        1.5216153839        0.0153015888
 C          1.3785929607        0.5171910760       -0.2428955942
 C          2.8120300586        0.8087099412       -0.3565419864
 C          3.2307709617        1.9879132373       -0.9886441965
 C          4.5659639635        2.3100290539       -1.1320907783
 C          5.4946214532        1.4200425616       -0.6230169366
 O          6.8479749482        1.5488260472       -0.6598537817
 C          7.3524132126        0.4414541899       -0.0480188564
 C          8.6900160927        0.1447720659        0.1402115097
 C          8.9906671228       -1.0412914798        0.7860797510
 C          7.9900255736       -1.9022049498        1.2295576950
 C          6.6544627148       -1.6047390040        1.0415058893
 C          6.3289251906       -0.4196895933        0.3956140359
 C          5.1004014738        0.2271091900        0.0160989814
 C          3.7550977838       -0.0790090293        0.1489405123
 C          0.8804452884       -0.7734535750       -0.4015209271
 N         -0.3989178082       -1.0879388211       -0.3304917850
 C         -3.1711892229       -1.7586446036       -0.1733888224
 C         -2.5752027388       -2.9941048219       -0.3458842927
 C         -3.4045649797       -4.1013713169       -0.4389350576
 C         -4.7864554121       -3.9889394353       -0.3624110602
 C         -5.3965379020       -2.7570682401       -0.1888845158
 C         -4.5773879826       -1.6490388850       -0.0956343163
 N         -4.8522055815       -0.3107087306        0.0773425383
 H         -7.8473096397        3.8509185573        0.6628128210
 H         -9.0047400415        1.7096580317        0.4538852144
 H         -7.7471984185       -0.3995405706        0.1693233806
 H         -5.3736007042        3.9812430036        0.5943794676
 H         -1.6521492160        1.9593636703        0.2851262466
 H          0.7669870278        2.5385504802        0.1743081574
 H          2.4855557209        2.6542609932       -1.3960227556
 H          4.8790504444        3.2167847108       -1.6242606255
 H          9.4598606088        0.8154656994       -0.2060246705
 H         10.0247699512       -1.3044480992        0.9506118087
 H          8.2674124165       -2.8181638246        1.7297469217
 H          5.8797414013       -2.2723216225        1.3865959494
 H          3.4479368907       -0.9821880397        0.6528631339
 H          1.5411978435       -1.6021193211       -0.6203814318
 H         -1.5041076753       -3.0772202543       -0.4063318241
 H         -2.9619723393       -5.0763693714       -0.5732326259
 H         -5.3983754081       -4.8746127162       -0.4381730573
 H         -6.4689471517       -2.6636893797       -0.1285033161
  53
  -88.9321689048000       0.130293783333611      !
 C         -7.2740403079        2.8767220224        0.7711007696
 C         -7.9114136079        1.6387107013        0.7126193486
 C         -7.2037648703        0.4722838034        0.4880595972
 C         -5.8364319755        0.5871612558        0.3247481676
 C         -5.1748698461        1.8448391720        0.3820407677
 C         -5.9083172724        3.0007468140        0.6082347805
 N         -3.8152800711        1.6946646082        0.1919633671
 C         -3.6578525318        0.4122455103        0.0270592362
 N         -2.6057981241       -0.4363961549       -0.1986538542
 C         -1.2741367202       -0.0582755542       -0.2958458537
 C         -0.9045941136        1.2815233489       -0.1404613946
 C          0.4355460752        1.5943032650       -0.2110508475
 C          1.3793643578        0.5876796488       -0.4385734625
 C          2.8198636713        0.8600076059       -0.4916314413
 C          3.2982936831        2.0228532224       -1.1100596109
 C          4.6472420158        2.3124872838       -1.1830823430
 C          5.5267175594        1.4079591238       -0.6148901093
 O          6.8832001511        1.5042303536       -0.5761951261
 C          7.3258473613        0.3938902817        0.0774322927
 C          8.6426006017        0.0677092347        0.3477320108
 C          8.8756559493       -1.1153000633        1.0266496064
 C          7.8304178627       -1.9455372147        1.4232847177
 C          6.5158879233       -1.6193319207        1.1530550676
 C          6.2585137283       -0.4368067014        0.4728294614
 C          5.0700238183        0.2326489233        0.0146762148
 C          3.7136332998       -0.0418207565        0.0750467452
 C          0.8846356674       -0.7034623148       -0.6045129359
 N         -0.3929954610       -1.0215239112       -0.5337456888
 C         -3.1365861686       -1.7290618876       -0.2723216614
 C         -2.5252022480       -2.9521534446       -0.4775008752
 C         -3.3307175418       -4.0805926899       -0.4911299514
 C         -4.7046752198       -4.0009259896       -0.3075035731
 C         -5.3303081072       -2.7817145873       -0.1024896822
 C         -4.5346826104       -1.6527483529       -0.0870096050
 N         -4.8285855891       -0.3194658565        0.0925994683
 H         -7.8679402722        3.7610499715        0.9490689576
 H         -8.9817176970        1.5891656004        0.8458311071
 H         -7.6987625111       -0.4855603538        0.4427690614
 H         -5.4160598839        3.9586200448        0.6533729099
 H         -1.6612390266        2.0275095362        0.0398765368
 H          0.7586805073        2.6147858359       -0.0665404502
 H          2.5914108604        2.7026936165       -1.5612955040
 H          5.0074076943        3.2069694445       -1.6653739837
 H          9.4481703099        0.7139058033        0.0382849287
 H          9.8916128914       -1.4010978853        1.2536400610
 H          8.0556196713       -2.8602446666        1.9509428374
 H          5.7056401302       -2.2626967815        1.4602672288
 H          3.3583374227       -0.9303676294        0.5736916039
 H          1.5487549518       -1.5298650989       -0.8219046064
 H         -1.4603509963       -3.0105135450       -0.6197413192
 H         -2.8749717750       -5.0462415122       -0.6481373511
 H         -5.2977556818       -4.9024287519       -0.3236807392
 H         -6.3967231740       -2.7136638534        0.0406182834
  53
  -88.9321293462000       0.124952175254992      !
 C         -7.1373908853        2.9517597371        0.9647758064
 C         -7.8115718837        1.7325495282        0.9275706463
 C         -7.1501660952        0.5494381639        0.6542013624
 C         -5.7904847109        0.6277663346        0.4204441321
 C         -5.0918854432        1.8660686654        0.4562547394
 C         -5.7791863111        3.0395324330        0.7314344381
 N         -3.7483671226        1.6805656325        0.1972551555
 C         -3.6344989775        0.3957400805        0.0165807587
 N         -2.6162250166       -0.4798382546       -0.2562213669
 C         -1.2784280047       -0.1342079660       -0.3889489967
 C         -0.8927285208        1.2096789071       -0.3549882901
 C          0.4499217269        1.4985309386       -0.4610390003
 C          1.3801269477        0.4630537316       -0.5932284485
 C          2.8221111365        0.7263156503       -0.6671724307
 C          3.3021008661        1.7864898826       -1.4471197489
 C          4.6489121407        2.0819425900       -1.5316540267
 C          5.5216908288        1.2943502962       -0.8020186201
 O          6.8736014154        1.4286380460       -0.7324712219
 C          7.3110262090        0.4508260047        0.1088861239
 C          8.6212937428        0.2129743168        0.4827297704
 C          8.8500307358       -0.8335665670        1.3585225158
 C          7.8066928891       -1.6175173827        1.8443898987
 C          6.4987146006       -1.3799715812        1.4699053541
 C          6.2453999091       -0.3340760151        0.5927366874
 C          5.0629731438        0.2222849678       -0.0101172503
 C          3.7089971010       -0.0665148888        0.0513991536
 C          0.8722589981       -0.8322569894       -0.6328696166
 N         -0.4102967293       -1.1267932293       -0.5370449951
 C         -3.1853507936       -1.7563758159       -0.3168968486
 C         -2.6188215679       -2.9921383603       -0.5688008397
 C         -3.4575795665       -4.0962130628       -0.5712306354
 C         -4.8202148031       -3.9803801281       -0.3305781602
 C         -5.4009984864       -2.7479172900       -0.0782831316
 C         -4.5724159929       -1.6428675486       -0.0750678560
 N         -4.8207882822       -0.3040339359        0.1309679947
 H         -7.6955803977        3.8500511846        1.1835804138
 H         -8.8740973937        1.7111337844        1.1180341738
 H         -7.6738384066       -0.3937123150        0.6271155337
 H         -5.2574059645        3.9822654212        0.7619947166
 H         -1.6387609360        1.9776787389       -0.2330660816
 H          0.7877370268        2.5235789058       -0.4167254490
 H          2.5975689368        2.3772954301       -2.0131287281
 H          5.0121705434        2.8955145598       -2.1386774942
 H          9.4248588703        0.8237600962        0.1039057860
 H          9.8607003523       -1.0462914953        1.6727533452
 H          8.0281340794       -2.4239164235        2.5273809383
 H          5.6901421689       -1.9866833150        1.8478100029
 H          3.3481011293       -0.8752234018        0.6682605838
 H          1.5289740479       -1.6826992708       -0.7633247326
 H         -1.5621810397       -3.0785141034       -0.7527765721
 H         -3.0378170777       -5.0714551973       -0.7651338625
 H         -5.4400939589       -4.8638438234       -0.3396245209
 H         -6.4585864053       -2.6517052617        0.1078397432
  53
  -88.9320252396000       0.111917948378073      !
 C         -6.6087588776        3.0228830759       -1.9105131289
 C         -7.4767446837        2.0289942969       -1.4622022127
 C         -7.0077315290        0.8888939327       -0.8358640649
 C         -5.6401276806        0.7774543910       -0.6727087608
 C         -4.7448920671        1.7861414680       -1.1244547140
 C         -5.2408882626        2.9201074808       -1.7513446706
 N         -3.4368209329        1.4450670007       -0.8430333295
 C         -3.5313696244        0.2907463428       -0.2473296238
 N         -2.6616394930       -0.6126951523        0.3048404405
 C         -1.2856045591       -0.4497541011        0.3895958899
 C         -0.6636086547        0.6232057160       -0.2566696268
 C          0.7026776239        0.7473733484       -0.1305853454
 C          1.4201086912       -0.1754445525        0.6357534347
 C          2.8737225796       -0.0645644109        0.8116197502
 C          3.4320898105       -0.2120050094        2.0876543983
 C          4.7910129902       -0.0979763781        2.3082484889
 C          5.5960372025        0.1535389333        1.2114166736
 O          6.9493038344        0.2920913848        1.2121409776
 C          7.3103847778        0.5148947792       -0.0821120217
 C          8.5954145904        0.7095739146       -0.5552345251
 C          8.7456435604        0.9108780929       -1.9158775837
 C          7.6503850613        0.9184576657       -2.7757659625
 C          6.3670743165        0.7284704784       -2.3019067330
 C          6.1921471239        0.5252032821       -0.9396725751
 C          5.0585303792        0.2918704339       -0.0842446631
 C          3.6902714047        0.1921599079       -0.2824656577
 C          0.6905649347       -1.2028296898        1.2261348863
 N         -0.6158741526       -1.3439042995        1.1056755648
 C         -3.4332765965       -1.6755605315        0.7860688820
 C         -3.0660201318       -2.8543565345        1.4080758094
 C         -4.0748752679       -3.7393953566        1.7564581166
 C         -5.4110304252       -3.4635992301        1.4980005951
 C         -5.7924594228       -2.2866148940        0.8740668127
 C         -4.7932163656       -1.4010556008        0.5204949565
 N         -4.8245893031       -0.1775866818       -0.1111654014
 H         -7.0206877592        3.8963304506       -2.3940715338
 H         -8.5396514956        2.1522406952       -1.6064317774
 H         -7.6819113543        0.1211719576       -0.4884881416
 H         -4.5695934330        3.6899357881       -2.0958340742
 H         -1.2562278607        1.3254051293       -0.8195749560
 H          1.2192881866        1.5686645914       -0.6056212376
 H          2.7743564367       -0.3965543195        2.9237136368
 H          5.2141635663       -0.1984556333        3.2946710616
 H          9.4395683233        0.7011776475        0.1152719452
 H          9.7350200183        1.0640459514       -2.3197579007
 H          7.8114077381        1.0759064997       -3.8317378434
 H          5.5187669895        0.7340828908       -2.9689773254
 H          3.2698461012        0.2911575012       -1.2717293271
 H          1.1832295381       -1.9671468971        1.8132882292
 H         -2.0297631376       -3.0624649224        1.6101498930
 H         -3.8125271148       -4.6670520205        2.2416988829
 H         -6.1678036803       -4.1774553693        1.7852809467
 H         -6.8282847744       -2.0693116398        0.6683267905
  53
  -88.9320221060000       0.111547447633588      !
 C         -7.3098781792        2.9212177660        0.4301614393
 C         -7.9553007953        1.6924447229        0.3042001489
 C         -7.2446709586        0.5137065404        0.1724645676
 C         -5.8659328803        0.6067817014        0.1698397085
 C         -5.1961698639        1.8550071448        0.2969239914
 C         -5.9327158734        3.0233982237        0.4293374272
 N         -3.8263130723        1.6843396704        0.2604792661
 C         -3.6706547375        0.3993801612        0.1152706291
 N         -2.6127345979       -0.4628190559       -0.0090482927
 C         -1.2756970625       -0.0919909941       -0.0392159821
 C         -0.9056673687        1.2356952626        0.1968765529
 C          0.4337060757        1.5527348049        0.1407214520
 C          1.3782149081        0.5632732629       -0.1527889076
 C          2.8113869383        0.8580834227       -0.2589905462
 C          3.2323374501        2.0706715736       -0.8228137796
 C          4.5683735068        2.3882166172       -0.9695732323
 C          5.4965772873        1.4575785006       -0.5380078519
 O          6.8505288506        1.5698378316       -0.6008303696
 C          7.3530496073        0.4176803475       -0.0761922242
 C          8.6901402748        0.0879815163        0.0526129349
 C          8.9880208261       -1.1431023181        0.6094348414
 C          7.9854099310       -2.0156264261        1.0248007552
 C          6.6504598028       -1.6852026608        0.8965428218
 C          6.3277158307       -0.4550895673        0.3396334548
 C          5.1002520637        0.2317929430        0.0337664469
 C          3.7544747203       -0.0668927967        0.1754536875
 C          0.8854584660       -0.7225466082       -0.3624760049
 N         -0.3920617336       -1.0453874350       -0.3058265737
 C         -3.1507059546       -1.7471514469       -0.1445154199
 C         -2.5375457430       -2.9777241360       -0.2903054752
 C         -3.3524005519       -4.0949320543       -0.3917121183
 C         -4.7368306997       -3.9967859068       -0.3502086842
 C         -5.3640626318       -2.7700265056       -0.2032519848
 C         -4.5592869604       -1.6522307582       -0.1003545022
 N         -4.8519660730       -0.3157357570        0.0564948188
 H         -7.9065661500        3.8159169184        0.5294842058
 H         -9.0344922625        1.6602844989        0.3082865289
 H         -7.7461124534       -0.4367710696        0.0738593045
 H         -5.4339840186        3.9741857142        0.5252398624
 H         -1.6627400028        1.9721943132        0.4109270042
 H          0.7547370233        2.5642986825        0.3411079500
 H          2.4883067091        2.7688749811       -1.1749162925
 H          4.8822342413        3.3211544898       -1.4094593082
 H          9.4616912157        0.7672759585       -0.2723148904
 H         10.0215126312       -1.4334094286        0.7239411390
 H          8.2607060628       -2.9675414497        1.4537069308
 H          5.8740263673       -2.3620433394        1.2187573884
 H          3.4479717534       -0.9952151762        0.6323880492
 H          1.5494091630       -1.5395228253       -0.6129724339
 H         -1.4645716906       -3.0498010494       -0.3255785353
 H         -2.8961361195       -5.0663430427       -0.5061187607
 H         -5.3371743879       -4.8898223292       -0.4331647042
 H         -6.4385180141       -2.6879482944       -0.1690752458
  53
  -88.9311540317000       4.451642817035820E-002 !
 C         -6.2416387902        2.8545255954       -2.4368066174
 C         -7.1285341779        1.8165328131       -2.1568753846
 C         -6.7487279514        0.7261882130       -1.3958324270
 C         -5.4492175134        0.7077987620       -0.9263036347
 C         -4.5351023371        1.7600874687       -1.2086433988
 C         -4.9418921630        2.8453856912       -1.9710179828
 N         -3.3012692899        1.5039115284       -0.6453743129
 C         -3.4547498475        0.3535897024       -0.0541941526
 N         -2.6613614813       -0.5040488333        0.6624408426
 C         -1.2951215068       -0.3441112627        0.8504788511
 C         -0.6703742061        0.8378762456        0.4399194559
 C          0.6993947968        0.9122177669        0.5492273355
 C          1.4212159816       -0.1676645498        1.0685177197
 C          2.8883881161       -0.1601723904        1.0742392064
 C          3.6190024903       -0.6757705936        2.1517179172
 C          5.0014466751       -0.6957117987        2.1546286725
 C          5.6523691363       -0.1927361061        1.0416440535
 O          6.9966240475       -0.1309861468        0.8374387795
 C          7.1707767160        0.4267640447       -0.3939037411
 C          8.3765052061        0.6806688980       -1.0226255593
 C          8.3266691557        1.2531310310       -2.2816579631
 C          7.1153926041        1.5637246737       -2.8944475623
 C          5.9118256502        1.3107417340       -2.2664441631
 C          5.9386412692        0.7357569136       -1.0032962082
 C          4.9371606805        0.3276733299       -0.0552537331
 C          3.5532922036        0.3473350413       -0.0364637200
 C          0.6801431127       -1.2602880283        1.5085774061
 N         -0.6326396116       -1.3531492043        1.4013092447
 C         -3.4577010891       -1.6022581388        1.0021975880
 C         -3.1652806798       -2.7455854392        1.7220439602
 C         -4.1820725268       -3.6717359164        1.8983083577
 C         -5.4533249934       -3.4702498560        1.3770774657
 C         -5.7603398169       -2.3268838469        0.6569206970
 C         -4.7534595444       -1.3988189834        0.4774351389
 N         -4.7221406291       -0.1843086758       -0.1719260730
 H         -6.5832207014        3.6861573949       -3.0352352228
 H         -8.1354176321        1.8647714205       -2.5436463702
 H         -7.4375505734       -0.0763669627       -1.1814871728
 H         -4.2544878335        3.6469484863       -2.1876625870
 H         -1.2592240903        1.6428482732        0.0326752143
 H          1.2181619394        1.8083201249        0.2417881871
 H          3.0853650353       -1.0521404594        3.0114591922
 H          5.5577974589       -1.0886487918        2.9904200331
 H          9.3125642110        0.4386751971       -0.5456949698
 H          9.2491846016        1.4637347855       -2.8013113787
 H          7.1209271161        2.0087049791       -3.8782055286
 H          4.9719668842        1.5487275039       -2.7406263642
 H          3.0015154214        0.7255165039       -0.8833106227
 H          1.1659810162       -2.1261416720        1.9392046834
 H         -2.1769716149       -2.9005481842        2.1187268182
 H         -3.9779690982       -4.5735657931        2.4549627015
 H         -6.2177565620       -4.2158761902        1.5336008155
 H         -6.7461228311       -2.1646964074        0.2515081033
  53
  -88.9310989968000       4.199794321992156E-002 !
 C         -6.8202408619        2.8992489307       -1.8215595640
 C         -7.6050569013        1.7967472241       -1.4887120175
 C         -7.0532576160        0.6633096056       -0.9207881007
 C         -5.6897553535        0.6715043592       -0.6969902788
 C         -4.8777053622        1.7893909243       -1.0348908568
 C         -5.4565261778        2.9146799795       -1.6041165047
 N         -3.5555867253        1.5531031044       -0.7123908535
 C         -3.5648747267        0.3571581448       -0.1972733733
 N         -2.6409591345       -0.4912581602        0.3531084106
 C         -1.2830439566       -0.2324558602        0.4825953483
 C         -0.7010886223        0.8479407066       -0.1873487052
 C          0.6601194094        1.0276116980       -0.0598329783
 C          1.4029111925        0.1625723112        0.7464888634
 C          2.8611396458        0.2809730252        0.8941720341
 C          3.4308502412        0.3326701653        2.1715756488
 C          4.7981308316        0.4057416296        2.3574715505
 C          5.5958778986        0.3982449510        1.2269783051
 O          6.9558332639        0.4223625055        1.1933536567
 C          7.3058101463        0.3620264412       -0.1214344337
 C          8.5920168582        0.3357476545       -0.6296736391
 C          8.7284233428        0.2499955685       -2.0039011707
 C          7.6188471042        0.1950385388       -2.8435895999
 C          6.3349050565        0.2267606853       -2.3358046488
 C          6.1738547766        0.3108095186       -0.9592717945
 C          5.0438808947        0.3385771123       -0.0686683258
 C          3.6681652482        0.2973359490       -0.2353207053
 C          0.7062416855       -0.8545431689        1.3905064019
 N         -0.5899572930       -1.0581273738        1.2561282211
 C         -3.3284657490       -1.6474832602        0.7360382751
 C         -2.8788850672       -2.8210551815        1.3120916645
 C         -3.8105976349       -3.8203275460        1.5476653534
 C         -5.1513554560       -3.6609491500        1.2234594120
 C         -5.6150452787       -2.4896626044        0.6462639492
 C         -4.6926941826       -1.4897547806        0.4065863089
 N         -4.8112458130       -0.2398146319       -0.1591011913
 H         -7.2954487052        3.7636839082       -2.2613354885
 H         -8.6677517231        1.8288149038       -1.6769502923
 H         -7.6622849285       -0.1887402505       -0.6606158413
 H         -4.8504431646        3.7676082060       -1.8632328265
 H         -1.3168796266        1.5067000730       -0.7773003038
 H          1.1531722875        1.8423205553       -0.5702654190
 H          2.7774643672        0.3281960787        3.0312918549
 H          5.2334164617        0.4551125358        3.3425427901
 H          9.4471860080        0.3745554967        0.0256722180
 H          9.7180178244        0.2219184433       -2.4344528648
 H          7.7691586411        0.1246493405       -3.9105042262
 H          5.4752361881        0.1823191139       -2.9867478098
 H          3.2324322272        0.2514928426       -1.2220501600
 H          1.2212828878       -1.5579354710        2.0320071836
 H         -1.8397396436       -2.9401668589        1.5650636543
 H         -3.4826117051       -4.7463164833        1.9946668567
 H         -5.8463338329       -4.4623874499        1.4222391323
 H         -6.6543600061       -2.3622536824        0.3894646792
  53
  -88.9302915368000       1.787084545415684E-002 !
 C         -6.0834242480        2.8172100436       -2.5686427448
 C         -6.9771681945        1.7742779318       -2.3322639221
 C         -6.6359040874        0.6950248405       -1.5377489092
 C         -5.3670900557        0.6920086892       -0.9903020760
 C         -4.4463319152        1.7497177044       -1.2276344219
 C         -4.8146171073        2.8241357630       -2.0241400811
 N         -3.2453624610        1.5083354858       -0.5917007908
 C         -3.4233958789        0.3605485238       -0.0029620288
 N         -2.6609199697       -0.4903341165        0.7541107756
 C         -1.2997519457       -0.3313541005        0.9781327788
 C         -0.6784020368        0.8745047015        0.6386587952
 C          0.6915513299        0.9426299615        0.7457686535
 C          1.4156081210       -0.1668937905        1.1950165295
 C          2.8821009311       -0.1716881953        1.1523833443
 C          3.6514973389       -0.7502332284        2.1688230942
 C          5.0325380697       -0.7886971282        2.1076971202
 C          5.6413975266       -0.2402662812        0.9922207780
 O          6.9756223029       -0.1907987176        0.7266722628
 C          7.1020046607        0.4227555498       -0.4840549802
 C          8.2804808819        0.6840089226       -1.1598040210
 C          8.1809183339        1.3168163288       -2.3866922552
 C          6.9480415729        1.6789748569       -2.9233809245
 C          5.7716903543        1.4183991337       -2.2487868653
 C          5.8486871169        0.7829152285       -1.0171567717
 C          4.8859412569        0.3455694589       -0.0428351366
 C          3.5052746565        0.3832008396        0.0399154040
 C          0.6755826726       -1.2769554184        1.5910611353
 N         -0.6377695551       -1.3641037567        1.4834235591
 C         -3.4637779992       -1.5955999166        1.0512484122
 C         -3.1985322208       -2.7349644172        1.7874466856
 C         -4.2156196303       -3.6688965099        1.9143283530
 C         -5.4603444749       -3.4783487185        1.3287431526
 C         -5.7400138766       -2.3386384913        0.5916999039
 C         -4.7328983656       -1.4026522283        0.4612200983
 N         -4.6782288476       -0.1881639376       -0.1871363858
 H         -6.3938708489        3.6389531806       -3.1969554370
 H         -7.9586546500        1.8095024531       -2.7808185379
 H         -7.3299701911       -0.1114970392       -1.3579538374
 H         -4.1206994259        3.6282323498       -2.2083290566
 H         -1.2678903641        1.6999636136        0.2764856988
 H          1.2094591422        1.8543984162        0.4869394657
 H          3.1509617057       -1.1637949460        3.0314189232
 H          5.6191921985       -1.2314142034        2.8966066584
 H          9.2336638627        0.4019797905       -0.7425512346
 H          9.0810499351        1.5343924194       -2.9415624678
 H          6.9147850684        2.1708822300       -3.8839903505
 H          4.8147527970        1.6964380990       -2.6632469429
 H          2.9224572725        0.8102591100       -0.7616276300
 H          1.1623591559       -2.1619242877        1.9795913856
 H         -2.2296304498       -2.8821132451        2.2323090793
 H         -4.0331202081       -4.5681387148        2.4825373905
 H         -6.2260307330       -4.2295062779        1.4485711590
 H         -6.7055369333       -2.1851837882        0.1370400124
