73
 energy: -119.467912657124 gnorm: 0.000046701799 xtb: 6.7.1 (edcfbbe)
C           -7.03482501881144        2.98973424865821        1.31227326821078
C           -5.69230301787436        3.27179334090979        1.51340431488796
C           -4.70995408352525        2.37512721639892        1.11406980143524
C           -5.09991523965009        1.19900854020740        0.51339059639874
C           -6.45606299481643        0.90877968179481        0.30779752592439
C           -7.43115153961891        1.80702785190203        0.70826648830063
C           -6.55761065389754       -0.39017682858626       -0.34030334355050
C           -7.65955721862172       -1.12089986085135       -0.75232383652928
C           -7.45164149009155       -2.35226559049945       -1.35309879264826
C           -6.16977224704472       -2.84628106990901       -1.54020899735470
C           -5.06099796692281       -2.11831542958322       -1.12930766260368
C           -5.26430137342722       -0.89477772917386       -0.53168604089872
C           -4.22190430494614        0.07568885152238       -0.00269875568212
C           -3.33827500879543        0.54858516222304       -1.12909671143756
C           -3.91183894364456        1.24501282433971       -2.18206976896680
C           -3.15587739028483        1.66551461164917       -3.26033301284076
C           -1.80131921175317        1.37527111152158       -3.29394404854870
C           -1.21242461010095        0.68380491380608       -2.25669246590715
C           -1.96738406752739        0.26808129777532       -1.15452423219074
N           -1.36519460141551       -0.41596936331647       -0.11409879910798
C            0.01923002921640       -0.73748913707270       -0.20344392770835
C            0.40098209307997       -2.01548882611153       -0.59536114747639
C            1.74111969883815       -2.34222291004364       -0.68572090773426
C            2.72958737009248       -1.40426734808497       -0.39195943696021
N            4.02898285007012       -1.68893305250987       -0.47207076121722
C            4.96235837585696       -0.78696224888728       -0.19004183381726
C            6.34843087875556       -1.10647769423719       -0.28206185551953
C            6.77317211196561       -2.38758902048206       -0.67333597436826
C            8.11657960036195       -2.65441515698404       -0.74915948641272
C            9.01778598680308       -1.62939160018937       -0.43026571991009
N            8.64738314825617       -0.43022432529495       -0.06406600309488
C            7.34661842734851       -0.14616655744890        0.01696567763805
C            6.94992247193195        1.17953588942790        0.42121666229255
N            7.89822105833978        2.07566097181296        0.69907628713772
C            7.54994884173557        3.28120832291790        1.06611715695023
C            6.21763382937870        3.69872875774578        1.18831165978418
C            5.22366508839528        2.79565932247524        0.90844231516130
C            5.57096570330939        1.49308532631969        0.51158521799379
C            4.56940611763047        0.52387013220311        0.21061130784352
N            3.27790360089386        0.82207228227307        0.29444511303180
C            2.33115032535249       -0.07484266339718        0.01414344924304
C            0.97487364405507        0.22363309468894        0.10100394266486
C           -2.06568973351879       -0.79022311999577        1.01811037067560
C           -1.39909207005171       -1.39356253766380        2.09016857361330
C           -2.08581710065664       -1.77007215554642        3.22476303052507
C           -3.45085824213626       -1.55096649616334        3.32010099500830
C           -4.11525692475869       -0.94765738010596        2.26862093010647
C           -3.44231520302650       -0.56127721580423        1.11945971814697
H           -7.78162485025196        3.70218525495240        1.63115534073876
H           -5.40709942287276        4.19987757137851        1.98635937921275
H           -3.66394323252569        2.59499431391270        1.27117300325097
H           -8.47800959323612        1.59156962082156        0.55378143838770
H           -8.65999036771655       -0.74035555147357       -0.60911749636734
H           -8.29948810823573       -2.93603774900888       -1.68072923057260
H           -6.03197131189093       -3.80841369530238       -2.01112258797171
H           -4.06220557516013       -2.50345674907596       -1.27601531356997
H           -4.97116333871845        1.45452030032874       -2.15136652003320
H           -3.61993776047876        2.20747314546990       -4.06960201633743
H           -1.19863691121490        1.68767289354768       -4.13344556454055
H           -0.15810012304984        0.45837458881133       -2.29484677643737
H           -0.35578838920098       -2.74961269442954       -0.82569150355250
H            2.04988564052742       -3.32989749844642       -0.98879366122236
H            6.02333309305817       -3.13035356914979       -0.90451923108033
H            8.47905140640547       -3.62637182941065       -1.04580436510803
H           10.08585319602518       -1.79773565144449       -0.47668697307724
H            8.36450432865981        3.96176508374038        1.27735366877809
H            5.98818399181297        4.70727706017124        1.49541624985190
H            4.17612704763463        3.04977435726619        0.98183475163763
H            0.67686789216581        1.21426019163226        0.40661340941860
H           -0.33521756806430       -1.56221521968227        2.02697113480264
H           -1.55130854315546       -2.23534991540110        4.03925431107182
H           -3.99201261278382       -1.84593514758630        4.20561738207342
H           -5.17898131196210       -0.77059269683388        2.33296246215813
