42
 energy: -75.025311435460 gnorm: 0.000119769819 xtb: 6.7.1 (edcfbbe)
C            0.67196931054339       -5.95289971532738        0.00562696721612
C            2.03437702265884       -5.63472876165552        0.00334038152948
C            2.44981048582433       -4.32510290873875        0.00140458721628
C            1.50465225203671       -3.28917358847816        0.00173476569992
N            1.88629469398958       -2.00452190025721        0.00089833280534
C            0.97869443093524       -1.05337873659323        0.00136778868931
C           -0.41073125912572       -1.37782350022724        0.00192563489972
N           -0.80318612613313       -2.63264669431913        0.00310916426882
C            0.10797070323811       -3.61533918150792        0.00347345649147
C           -0.28056384333564       -4.96276722941246        0.00558996112727
C           -1.40130550817883       -0.32098300814981        0.00169293068922
N           -2.67889259651145       -0.63122228424947        0.00150266372398
C           -3.60073098641841        0.34144629464835        0.00212797956931
C           -4.97040444245965        0.04098223729327        0.00202355957615
C           -5.89690909860682        1.05561276185108        0.00344801215718
C           -5.49125763266349        2.39449522524942        0.00497786664392
C           -4.15742741712949        2.72429675075924        0.00481572689895
C           -3.18482565889951        1.71417398177511        0.00326372849965
N           -1.87818760305907        2.01167353474453        0.00289218728914
C           -0.98758174879756        1.04452720617935        0.00201491691099
C            0.42291577110697        1.37393716082952        0.00194084579932
N            0.79284380936533        2.63561517613690        0.00231720169799
C            2.09615573616793        2.94747421458771        0.00327696180208
C            2.52070316540359        4.28397423022167        0.00402021759709
C            3.86259078317519        4.57905286496771        0.00586293095143
C            4.81936615995596        3.55832195006303        0.00696017962037
C            4.43816225758437        2.23829939860174        0.00595683166881
C            3.07703936969610        1.90103698816078        0.00399809062705
N            2.68155566735574        0.62056044078477        0.00292310040610
C            1.39870146309597        0.33298402793691        0.00187877568971
H            0.36963443337270       -6.98947393749467        0.00740873554229
H            2.76456837037015       -6.43016639894246        0.00324996752573
H            3.49535490443737       -4.06025468284437       -0.00021321361236
H           -1.33525661875783       -5.18841745758402        0.00720758981576
H           -5.26389332638353       -0.99689045610775        0.00096438963020
H           -6.95086303915084        0.82090152695686        0.00351219821969
H           -6.23771320035106        3.17468647823160        0.00632567157258
H           -3.82552720435119        3.75052950737554        0.00591560364837
H            1.76855064772613        5.05701058371386        0.00325277408721
H            4.18629954852521        5.60915312399194        0.00655723781537
H            5.86823227609132        3.81478595044640        0.00865234803456
H            5.16097127121888        1.43777005628354        0.00664345367311
