42
 energy: -75.062351047344 gnorm: 0.000019004049 xtb: 6.7.1 (edcfbbe)
C           -5.80515051445332       -1.40030725551960        0.00002208521947
C           -5.31561408005994       -2.72119086936196        0.00002435693365
C           -3.97310209428072       -2.97254457599161        0.00002073765965
C           -3.06079628147845       -1.89595226194459        0.00001456772627
N           -1.74220536745953       -2.13721801080956        0.00001069803739
C           -0.92646471685979       -1.10594288956006        0.00000509192097
C           -1.42344833851780        0.23503497347198        0.00000354904081
N           -2.71425421954149        0.48559690564591        0.00000710319475
C           -3.55712734961860       -0.55673511947208        0.00001243347008
C           -4.95070853233287       -0.33473415738177        0.00001624760305
C           -0.49454224502851        1.35531347592421       -0.00000158028899
N           -0.97978236531836        2.57740313905053       -0.00000189038628
C           -0.11154464598030        3.59870348877335       -0.00000617929934
C           -0.58774804669740        4.92707966468031       -0.00000717730372
C            0.30118664923867        5.96405229219634       -0.00001103400698
C            1.68987363399216        5.72756147389432       -0.00001412184092
C            2.18546601092215        4.45480646667691       -0.00001344171019
C            1.29641695565978        3.35893024221060       -0.00000969979553
N            1.77766643287798        2.10781471373335       -0.00000967481466
C            0.91527046770261        1.11522495749087       -0.00000577109227
C            1.42100703326415       -0.24937049139121       -0.00000527951894
N            2.72198777385276       -0.44018507947607       -0.00000980943898
C            3.17234101798457       -1.70275114789561       -0.00000880227945
C            4.56085023131153       -1.95453500567796       -0.00001382612582
C            5.01442749611762       -3.24286135402032       -0.00001260621302
C            4.11527693456211       -4.32725414204311       -0.00000673881488
C            2.76524257881540       -4.12007222458460       -0.00000186402594
C            2.26071048671379       -2.80219502844861       -0.00000281130423
N            0.93658790497246       -2.59341152257631        0.00000167108481
C            0.50817791852115       -1.35025990740860        0.00000037543978
H           -6.87308776193829       -1.23832824071155        0.00002535165067
H           -6.02004646533640       -3.54003285174152        0.00002961454504
H           -3.57470459177201       -3.97488256258684        0.00002256043645
H           -5.30177135093066        0.68514666684001        0.00001446486124
H           -1.65499695331775        5.08322629266668       -0.00000494717619
H           -0.05573510781833        6.98352962392760       -0.00001221704479
H            2.36412021426202        6.57143274005207       -0.00001708456265
H            3.24424012937355        4.24889537735266       -0.00001584874739
H            5.22970163214215       -1.10834365471412       -0.00001826112789
H            6.07578163971036       -3.44349675570854       -0.00001583822457
H            4.50896761423191       -5.33310443995137       -0.00000522046941
H            2.05753127252386       -4.93404194561188        0.00000281678373
