42
 energy: -75.025311440543 gnorm: 0.000101617965 xtb: 6.7.1 (edcfbbe)
C           -4.09799715447121       -4.36980174479567       -0.00268412506343
C           -2.97270562513907       -5.20107553758911       -0.00385305492134
C           -1.70611593632261       -4.66863669261646       -0.00458857680458
C           -1.52977502274106       -3.27746151849353       -0.00414899085045
N           -0.30420217616047       -2.73540728901977       -0.00425813371212
C           -0.16803190970073       -1.42776213979560       -0.00385381706000
C           -1.31566231925998       -0.57998294494080       -0.00369847965900
N           -2.52552691739220       -1.09447232211500       -0.00331365148677
C           -2.68343009940246       -2.42523215778677       -0.00331078432677
C           -3.96133484175943       -3.00266375643098       -0.00247718447970
C           -1.15284541294534        0.85935588879641       -0.00354443477236
N           -2.21723278098163        1.63108276583589       -0.00274582314593
C           -2.07385815040202        2.96349427393134       -0.00198673875772
C           -3.19049001196461        3.81178896018636       -0.00062503689950
C           -3.01831017568018        5.17490683672417        0.00066512230694
C           -1.73576225853650        5.73381028338144        0.00051422169438
C           -0.62011450269987        4.93189701115425       -0.00100526735355
C           -0.75899255359220        3.53648212844613       -0.00226122769703
N            0.31455303594831        2.73437587920781       -0.00343752614767
C            0.15515911022425        1.42934958611126       -0.00396186587980
C            1.32025201581044        0.56867432077944       -0.00417447554413
N            2.52079920323009        1.10458667346612       -0.00457824696029
C            3.60301780083337        0.31421084236374       -0.00323942741622
C            4.89598222934532        0.85708775915566       -0.00344566238007
C            5.99038362741788        0.02640991375479       -0.00087488279901
C            5.83312582756890       -1.36375633246092        0.00192200140665
C            4.58081909762072       -1.92897585718183        0.00174634215337
C            3.44179853451220       -1.11099381803092       -0.00101762579241
N            2.21036916310281       -1.63964508544065       -0.00157116815621
C            1.15987925201035       -0.84909230325750       -0.00327701124754
H           -5.08334535732045       -4.81137407642042       -0.00195892824672
H           -3.10517307654367       -6.27268647610373       -0.00412150327664
H           -0.82680417656532       -5.29322431029175       -0.00540760458381
H           -4.81677143750451       -2.34575713741957       -0.00165979069042
H           -4.17105014656696        3.36256692041265       -0.00049313958040
H           -3.88012249108884        5.82542710109532        0.00186259170599
H           -1.62550632958860        6.80793366821364        0.00163808168328
H            0.37649935671669        5.34427949012068       -0.00115047881262
H            4.99723056389788        1.93088635453884       -0.00545431379775
H            6.98465931517437        0.44749507994038       -0.00089409454391
H            6.70821333805246       -1.99630170735334        0.00421091413226
H            4.43964180997605       -2.99825813348627        0.00374104618167
