  43
        -69.75846700
 N         -6.6742650806       -4.0006666956        0.1229631497
 C         -5.7414120647       -3.3325872356        0.0944088307
 C         -4.5976560664       -2.5088296940        0.0590228175
 C         -4.6760502492       -1.2263825829       -0.4951228049
 C         -3.5630985755       -0.4170201951       -0.5172122379
 C         -2.3430686226       -0.8667841691        0.0002029928
 C         -1.1424987540       -0.0377485472       -0.0335958414
 C         -1.2155315892        1.3697946047       -0.0507287257
 C         -0.0170955203        2.1071005228        0.0334399200
 C         -0.0555743125        3.5755315585        0.0276700343
 C         -0.9631227061        4.2571010718       -0.7814072311
 C         -0.9946826826        5.6386886585       -0.7884270928
 C         -0.1278067906        6.3605388530        0.0154827553
 C          0.7750940939        5.6916662851        0.8255720873
 C          0.8148972953        4.3103075612        0.8312082968
 C          1.1817608814        1.4356728031        0.1063763680
 C          1.2052695770        0.0058034932        0.0837752381
 C          2.3869227759       -0.7631000971       -0.0062223308
 C          2.2787054179       -2.1811597090       -0.1603556549
 C          3.3775576899       -2.9788893389       -0.2034705712
 C          4.6753468798       -2.4168327466       -0.1058559399
 C          5.8081036509       -3.2272847368       -0.1553029956
 N          6.7463102997       -3.8976459136       -0.1931632314
 C          4.8028038582       -1.0135569866        0.0411779132
 C          3.7006881992       -0.2151361346        0.0778623297
 N          0.0195233282       -0.6337703764        0.0569755236
 C         -2.2717618161       -2.1580201487        0.5408130981
 C         -3.3801381112       -2.9701539334        0.5746157982
 H         -5.6145068044       -0.8809656328       -0.9026889362
 H         -3.6333223880        0.5634861650       -0.9624113555
 H         -2.1684370965        1.8634152518        0.0327952679
 H         -1.6280211849        3.7006534387       -1.4257476969
 H         -1.6988001719        6.1547569085       -1.4242074471
 H         -0.1567700760        7.4396573928        0.0118025922
 H          1.4497366458        6.2490167530        1.4584634282
 H          1.5062091285        3.7942722428        1.4812537078
 H          2.1128297543        1.9751338769        0.0577993434
 H          1.2844293324       -2.5987977928       -0.2143431601
 H          3.2816699045       -4.0504674318       -0.3012990824
 H          5.7937175973       -0.5882523519        0.1066207894
 H          3.8314672026        0.8518081407        0.1694762091
 H         -1.3280242004       -2.5022169185        0.9354550383
 H         -3.3233841331       -3.9633710703        0.9948481169
