93
 energy: -135.027751176761 gnorm: 0.000083310771 xtb: 6.7.1 (edcfbbe)
C            1.09459838505909        0.16106751008314        4.95653421297611
C            0.37860165984678        0.40103391747234        3.66258514883423
C           -0.87029803305685        1.00475962116392        3.62339761215344
C           -1.51138494342002        1.23730763486766        2.42367299933478
C           -0.91942884877466        0.87382895767889        1.21276470643019
C            0.32867507066878        0.24631894603958        1.24358857031656
C            0.95471519499124        0.02307285831610        2.45803118312454
C            0.98338229699207       -0.28170512592292       -0.02212478806487
C            2.43208812762801        0.12952341586429       -0.02751381884125
C            2.73376080403955        1.48640517577973       -0.08041768772932
C            4.04042137758545        1.92627716681708       -0.08606260371264
C            5.09977808311643        1.01754837253512       -0.03244436096039
C            6.49474759787320        1.48168719735148       -0.03789103912295
C            7.44559373463922        0.87674911064841        0.78077518542123
C            8.75665610748999        1.31465674897633        0.77724477942843
C            9.14041036545030        2.35902235703956       -0.04742643145377
C            8.20388444283343        2.96470146383459       -0.86821036127505
C            6.89084293386107        2.53228191004510       -0.86215302605378
C            4.79979273686525       -0.33401717342029        0.02758566661470
C            3.48105484464379       -0.78753573323653        0.02941196651940
C            3.24850088847960       -2.24554557150033        0.09648486294633
O            4.17042948405831       -3.03967793435358        0.18077180708399
C            1.84201113666621       -2.68415789863597        0.05640022175097
C            1.56966454736676       -4.05516166907733        0.08860299505587
C            0.27760715961915       -4.52462904697999        0.05669865805803
C           -0.79056045347298       -3.62673796642884       -0.01023936780707
C           -2.18346201297731       -4.09223763329127       -0.03677055650664
C           -3.16818126794890       -3.40899253575692        0.67512498314836
C           -4.48233941741987       -3.83605066008953        0.64409064585607
C           -4.83562953701419       -4.94979210748829       -0.09972511161634
C           -3.86501989053502       -5.63695990612195       -0.80934385028918
C           -2.54916538926200       -5.21408214166003       -0.77708875575893
C           -0.51591863106297       -2.26586867398927       -0.04762932985759
C            0.78280715331299       -1.78015624813478       -0.01240876464212
C            0.31152512859569        0.26592083017435       -1.26715003690714
C            0.92554917408877        0.07530996474706       -2.49378604202013
C            0.34976029830732        0.51108625885916       -3.67818386191557
C            1.02730052657082        0.26976433935781       -4.99259954898691
C           -0.88008929119662        1.15166261914517       -3.60651233793271
C           -1.50939997301571        1.35053678773122       -2.39518887790534
C           -0.92710806317248        0.90768313421476       -1.20599416096176
N           -1.56159480984684        1.11784417598486        0.00858175403424
C           -2.89089862707528        1.62233024592528        0.01300943155965
C           -3.14179713390186        2.97180066164532        0.22422774305478
C           -4.44061518907056        3.43941506455647        0.22952722538752
C           -5.52415422971573        2.58721819182136        0.02362573649185
C           -6.93397693217162        3.15593616550846        0.03992022076598
C           -7.05941972850179        4.20945595568002       -1.06975606703590
C           -7.19549376152395        3.80480214585763        1.40659863935341
C           -8.00470074653705        2.08676045523159       -0.19315012479778
C           -5.25403617849604        1.24105617163511       -0.19108070229260
C           -3.95609066950662        0.76030964055886       -0.19625050263273
H            1.88465235612882        0.90063512821323        5.09148583028312
H            0.41064709781854        0.23521858295078        5.79851927732276
H            1.55678067821732       -0.82417274798943        4.96295779769889
H           -1.35464595980362        1.29723763172636        4.54391639802328
H           -2.48594221746264        1.70117129658225        2.42267784831787
H            1.91649562971310       -0.47085495417995        2.46430774233069
H            1.92418577108540        2.20173337603878       -0.11665614421668
H            4.24812425583463        2.98606963107079       -0.11165536704075
H            7.14842802055666        0.07069022127948        1.43539884509380
H            9.48289571648466        0.84003564290218        1.42101834543123
H           10.16554397967413        2.69898646702164       -0.05131078775522
H            8.49891658334713        3.77645427468975       -1.51746072910018
H            6.16853839451360        2.99730778812014       -1.51765905972931
H            5.58486856355837       -1.07561279334616        0.05491154255234
H            2.40868749410254       -4.73314643742460        0.14523142364148
H            0.08436900272050       -5.58598788164779        0.10585394333021
H           -2.89471851096609       -2.55305597450657        1.27591570253218
H           -5.23418610439097       -3.29955965416295        1.20492928768817
H           -5.86300809798717       -5.28191913517088       -0.12484105782657
H           -4.13556873896614       -6.50545394833120       -1.39212613043134
H           -1.79981316610833       -5.74305997479633       -1.34760825425222
H           -1.33609659057452       -1.56835237201110       -0.12211145578785
H            1.87988221482936       -0.43230235448327       -2.52281759349497
H            0.77524970447025       -0.72297780365047       -5.36776211923720
H            0.70972222127263        1.00088829237218       -5.73245783223520
H            2.10847933043802        0.32193097362510       -4.88462289564625
H           -1.35442191286822        1.50429267280834       -4.51099969373524
H           -2.46234349185831        1.85688170172065       -2.36440154592307
H           -2.31456005070698        3.64774518858475        0.38500282708418
H           -4.60491875177088        4.49305935089201        0.39644262670404
H           -6.36383082994960        5.03032498192587       -0.91926288971942
H           -8.06786276463843        4.61695878263890       -1.08594245948028
H           -6.85305899369773        3.76077180406569       -2.03932409775573
H           -7.08185766997619        3.06910111496701        2.20020168767981
H           -8.20835572097247        4.19966537448073        1.44498450597297
H           -6.50555353125701        4.62186342824364        1.59799059451740
H           -7.88203662099150        1.61395619087693       -1.16482746967321
H           -7.97291348005487        1.32476926977500        0.58218331871160
H           -8.98904759803535        2.54962028211742       -0.16783287549200
H           -6.05413972938576        0.53892278759939       -0.35750986864079
H           -3.76893918618691       -0.29017055916083       -0.36836758480320
