  69
       -117.47952239
 C         -9.0244487747       -3.0652785410        0.7076214325
 C         -7.7134214989       -3.1171219627        1.1487512085
 C         -6.8344757308       -2.0885686323        0.8622223518
 C         -7.2551225847       -0.9759592780        0.1354094210
 C         -8.5782305345       -0.9508895688       -0.3377178890
 C         -9.4520079841       -1.9844203494       -0.0457420996
 O         -9.0554138125        0.0668925869       -1.1163792298
 C         -8.2041152704        1.0964331939       -1.4070963739
 C         -8.7031633831        2.1302063426       -2.1810553515
 C         -7.9049946756        3.2212511111       -2.4832130472
 C         -6.6133713041        3.2831478433       -1.9892232992
 C         -6.1064920428        2.2535892728       -1.2177974696
 C         -6.8816664543        1.1303897656       -0.9330588978
 N         -6.4009621886        0.0762118260       -0.1678983663
 C         -5.0610022110        0.0687365432        0.2761613882
 C         -4.7675283554        0.0736530334        1.6499112521
 C         -3.4698402611        0.0761927895        2.0794690248
 C         -2.4038347413        0.0574195621        1.1462793531
 C         -1.0727032412        0.0530170054        1.5928156582
 N         -0.6472689895        0.0676583605        2.8549063845
 N          0.6537753921        0.0557197087        2.8516471444
 C          1.0726167447        0.0337117303        1.5873334259
 C          2.4017261099        0.0106447048        1.1354980239
 C          2.7067306796       -0.0182726299       -0.2476082637
 C          4.0066414386       -0.0548406072       -0.6720402113
 C          5.0561777959       -0.0471593231        0.2584017158
 N          6.3957300299       -0.0798928700       -0.1855427125
 C          7.2605741699        0.9692337084        0.0972694223
 C          6.8443853225        2.1109562223        0.7803465154
 C          7.7335976409        3.1355393612        1.0485915289
 C          9.0510254365        3.0504011028        0.6321963343
 C          9.4749258101        1.9396766666       -0.0786380923
 C          8.5906929641        0.9101010152       -0.3524769866
 O          9.0653085257       -0.1395167879       -1.0892434369
 C          8.2018606681       -1.1629520085       -1.3654021628
 C          8.6976156931       -2.2265097281       -2.1002147262
 C          7.8872376552       -3.3130901922       -2.3855830987
 C          6.5860212527       -3.3398590533       -1.9139602497
 C          6.0826196412       -2.2806939531       -1.1811428819
 C          6.8710958533       -1.1624833478       -0.9136804190
 C          4.7666091054       -0.0082884328        1.6326421362
 C          3.4705091405        0.0123391603        2.0657651730
 O         -0.0022654678        0.0312891711        0.7241883733
 C         -2.7128755658        0.0447790610       -0.2361627661
 C         -4.0140854368        0.0591392932       -0.6573698214
 H         -9.7108623596       -3.8655209994        0.9340428998
 H         -7.3650193642       -3.9653605068        1.7170335870
 H         -5.8105939701       -2.1454730096        1.1946138384
 H        -10.4596234147       -1.9240219051       -0.4243981051
 H         -9.7206199968        2.0616949306       -2.5310922436
 H         -8.2986567641        4.0216604886       -3.0892099999
 H         -5.9928221306        4.1405495395       -2.1982779813
 H         -5.1058101348        2.3170345148       -0.8220666065
 H         -5.5821459006        0.1010334643        2.3594580290
 H         -3.2250107294        0.1000074829        3.1288096777
 H          1.8959827516       -0.0038344766       -0.9593094428
 H          4.2402400314       -0.0661025493       -1.7274161659
 H          5.8158386022        2.1935496538        1.0922941917
 H          7.3881928814        4.0070315382        1.5824982795
 H          9.7453421527        3.8476772597        0.8444344922
 H         10.4877732687        1.8524590456       -0.4376705862
 H          9.7223286891       -2.1844519378       -2.4326515185
 H          8.2784701154       -4.1369207735       -2.9609664846
 H          5.9546976148       -4.1922854106       -2.1110323948
 H          5.0743730296       -2.3175958859       -0.8014061859
 H          5.5832754294       -0.0208387445        2.3402541458
 H          3.2285678007        0.0207291367        3.1159949113
 H         -1.9039887188        0.0162216531       -0.9495149317
 H         -4.2510338460        0.0391191564       -1.7118669709
  69
       -117.47950218
 C         -8.1954357135       -3.5735018581       -1.1560732629
 C         -6.8992571572       -3.5431244374       -0.6713633113
 C         -6.3027172514       -2.3413742939       -0.3365736987
 C         -6.9907064718       -1.1388769805       -0.4908102800
 C         -8.3192910356       -1.1854428423       -0.9463194848
 C         -8.9080432470       -2.3924488493       -1.2825118099
 O         -9.0904058989       -0.0622121889       -1.0600718391
 C         -8.5230465015        1.1343729158       -0.7174665511
 C         -9.3148837936        2.2638744238       -0.8348118136
 C         -8.7933240093        3.5129617415       -0.5408740017
 C         -7.4705733478        3.6278747856       -0.1499605417
 C         -6.6733788359        2.5043367281       -0.0286460753
 C         -7.1896547840        1.2353484244       -0.2856635172
 N         -6.4187931543        0.0853369187       -0.1708200319
 C         -5.0731325634        0.1619152494        0.2483798878
 C         -4.7556354759        0.6571427768        1.5241427396
 C         -3.4528511671        0.7413512239        1.9283839640
 C         -2.4036035323        0.3487184963        1.0605464491
 C         -1.0673377505        0.4720571604        1.4730687044
 N         -0.6317577593        0.9223610172        2.6490337127
 N          0.6681682349        0.8918216017        2.6463325646
 C          1.0774876325        0.4222226775        1.4682483952
 C          2.4059252344        0.2396654317        1.0527926802
 C          2.7177970166       -0.2616108159       -0.2350304406
 C          4.0203949443       -0.4175645903       -0.6237442540
 C          5.0659480605       -0.0717107514        0.2449919531
 N          6.4091741073       -0.2127330161       -0.1642855006
 C          7.2427880458        0.8963398100       -0.2362368354
 C          6.7847902227        2.1876415847        0.0212480850
 C          7.6441228433        3.2686111928       -0.0523134197
 C          8.9731118456        3.0887060719       -0.3951613224
 C          9.4383943408        1.8181393623       -0.6912110802
 C          8.5838511399        0.7309439371       -0.6222120260
 O          9.0987374479       -0.4886605643       -0.9638596230
 C          8.2637149109       -1.5695101510       -0.9042446354
 C          8.7988774186       -2.7994053059       -1.2473703521
 C          8.0198419067       -3.9422554122       -1.1735056975
 C          6.7105832062       -3.8513554135       -0.7335751804
 C          6.1678647618       -2.6263972790       -0.3910523395
 C          6.9241397547       -1.4598393353       -0.4935730860
 C          4.7688402100        0.4247310702        1.5257402170
 C          3.4710996546        0.5708090868        1.9270803050
 O         -0.0039411096        0.1237089913        0.6673666919
 C         -2.7367040567       -0.1540419741       -0.2212698067
 C         -4.0442908074       -0.2501055967       -0.6115685479
 H         -8.6592388269       -4.5098579116       -1.4224568146
 H         -6.3447355816       -4.4601013287       -0.5465211131
 H         -5.2993484233       -2.3271531838        0.0573893577
 H         -9.9270000447       -2.3834951898       -1.6347290585
 H        -10.3339523073        2.1412575904       -1.1647175614
 H         -9.4163929172        4.3883788615       -0.6314144813
 H         -7.0485055010        4.5983973434        0.0594140068
 H         -5.6396076353        2.6050675999        0.2595950250
 H         -5.5576929844        0.9496377240        2.1867644209
 H         -3.1903606011        1.1027339187        2.9093018676
 H          1.9103770106       -0.5052364363       -0.9079945902
 H          4.2580310783       -0.7828956505       -1.6130014799
 H          5.7475971945        2.3399099640        0.2722194686
 H          7.2662546446        4.2572850438        0.1564208156
 H          9.6443510251        3.9310959870       -0.4467030782
 H         10.4615059679        1.6460669588       -0.9844756218
 H          9.8292747198       -2.8383836872       -1.5622767245
 H          8.4417204409       -4.8968071164       -1.4451044423
 H          6.1036798139       -4.7393607769       -0.6495430514
 H          5.1535693725       -2.5671671303       -0.0309591610
 H          5.5822783137        0.6673676815        2.1945106284
 H          3.2240528326        0.9335866002        2.9114097493
 H         -1.9407583380       -0.4482801667       -0.8875735599
 H         -4.2984381150       -0.6186915573       -1.5954924549
  69
       -117.47945200
 C         -7.7897249414        3.8841178357        1.6407787511
 C         -6.4939771250        3.4576494450        1.8760076160
 C         -6.0320906287        2.2766111742        1.3247344464
 C         -6.8569215644        1.4998537206        0.5120831481
 C         -8.1832533330        1.9210317654        0.3162092128
 C         -8.6373233294        3.1062748044        0.8693415281
 O         -9.0833627375        1.1835213398       -0.4009567257
 C         -8.6521457760        0.0013341791       -0.9357173126
 C         -9.5777468506       -0.7415645494       -1.6487354766
 C         -9.2006862857       -1.9304864128       -2.2508845353
 C         -7.8878560868       -2.3590970876       -2.1564417414
 C         -6.9576291477       -1.6234636323       -1.4451397701
 C         -7.3264849746       -0.4446639126       -0.7984293620
 N         -6.4215037819        0.3143553828       -0.0667319103
 C         -5.0842975750       -0.1081344657        0.0873260844
 C         -4.7952438079       -1.3319735918        0.7149613012
 C         -3.5005289498       -1.7379246000        0.8753944633
 C         -2.4304853291       -0.9363943840        0.4044984748
 C         -1.1055788008       -1.3670803289        0.5765025796
 N         -0.7052866674       -2.5048615745        1.1422879286
 N          0.5945918972       -2.5377757241        1.1275029277
 C          1.0390279131       -1.4200768385        0.5546605285
 C          2.3810596084       -1.0521076724        0.3660648024
 C          2.7357203331        0.1842337441       -0.2270380264
 C          4.0511971001        0.5312158563       -0.3760032809
 C          5.0661031384       -0.3419232150        0.0410068582
 N          6.4229404590        0.0219761827       -0.1032353389
 C          6.9371558816        1.1156972129        0.5809658504
 C          6.1591270817        1.8831269828        1.4462128052
 C          6.7039421829        2.9655055106        2.1127768827
 C          8.0364000659        3.2988036613        1.9412552874
 C          8.8338676209        2.5294760543        1.1100605116
 C          8.2961180871        1.4443881967        0.4389684920
 O          9.1467339624        0.7093377359       -0.3393157933
 C          8.6304828918       -0.3733936166       -0.9959818272
 C          9.5001641168       -1.1080717224       -1.7836968032
 C          9.0363713334       -2.1980143910       -2.5018290236
 C          7.6954624875       -2.5370161436       -2.4434860184
 C          6.8205123201       -1.8093459507       -1.6578492188
 C          7.2742252152       -0.7291541319       -0.9024813931
 C          4.7269772205       -1.5791750503        0.6135102820
 C          3.4160884329       -1.9260179097        0.7821881722
 O         -0.0176408211       -0.6185579610        0.1784943757
 C         -2.7343127574        0.2924919823       -0.2314720968
 C         -4.0331547028        0.6951718026       -0.3805189906
 H         -8.1484148155        4.8079056926        2.0659428267
 H         -5.8344422401        4.0427424882        2.4978075375
 H         -5.0278998865        1.9425796255        1.5295560496
 H         -9.6598700017        3.3958784209        0.6880263747
 H        -10.5854226867       -0.3655883740       -1.7238456123
 H         -9.9273019098       -2.5066923168       -2.8011721454
 H         -7.5783038173       -3.2708507718       -2.6429857420
 H         -5.9334882531       -1.9556336591       -1.3941711886
 H         -5.6103838298       -1.9326654628        1.0924388783
 H         -3.2590772106       -2.6639408411        1.3711676489
 H          1.9512991032        0.8447667803       -0.5625276328
 H          4.3230213946        1.4713908957       -0.8350712996
 H          5.1258697764        1.6180317985        1.6014788483
 H          6.0801461568        3.5456462662        2.7748099211
 H          8.4609936524        4.1437478879        2.4595749981
 H          9.8803741830        2.7485514800        0.9712919784
 H         10.5340572641       -0.8048853369       -1.8232884535
 H          9.7195263695       -2.7679788182       -3.1111505717
 H          7.3212825178       -3.3713790623       -3.0159068647
 H          5.7747173091       -2.0694877043       -1.6299115759
 H          5.5177750399       -2.2384507525        0.9418383457
 H          3.1360225824       -2.8598770329        1.2415425052
 H         -1.9242192244        0.8990592325       -0.6056178418
 H         -4.2655197412        1.6252298979       -0.8800966266
  69
       -117.47931125
 C         -8.3411273570       -3.4862118457       -1.1124584424
 C         -7.0478864392       -3.5096526271       -0.6191479326
 C         -6.3961665985       -2.3321879811       -0.3008783723
 C         -7.0242007488       -1.1009291147       -0.4818498195
 C         -8.3490972255       -1.0912094224       -0.9504237763
 C         -8.9940722642       -2.2743864067       -1.2678180651
 O         -9.0620198007        0.0663595509       -1.0957215141
 C         -8.4370893679        1.2407130845       -0.7790984200
 C         -9.1662402042        2.4065652137       -0.9397708940
 C         -8.5839612104        3.6341034433       -0.6706659869
 C         -7.2635954378        3.6904113310       -0.2590034849
 C         -6.5286041999        2.5306033431       -0.0952741450
 C         -7.1063550416        1.2839053826       -0.3297113579
 N         -6.3976306663        0.0992738432       -0.1759097602
 C         -5.0581506684        0.1197309203        0.2701302442
 C         -4.7469990679        0.6165213479        1.5468385013
 C         -3.4501776485        0.6560738808        1.9759918370
 C         -2.3999399466        0.2181019727        1.1315395406
 C         -1.0665687821        0.3159458569        1.5603566605
 N         -0.6350611311        0.7771455554        2.7331664151
 N          0.6650931867        0.7387814742        2.7383088332
 C          1.0779110146        0.2529388536        1.5687454604
 C          2.4066859052        0.0814347504        1.1487884472
 C          2.7141018615       -0.4367764458       -0.1331974001
 C          4.0143248526       -0.5514199960       -0.5431214798
 C          5.0603504534       -0.1437032270        0.2974695036
 N          6.3980764824       -0.2157537145       -0.1483504839
 C          7.1539927666        0.9408694998       -0.2918805922
 C          6.6296942638        2.2072946166       -0.0378161369
 C          7.4111536959        3.3379593069       -0.1907389215
 C          8.7256783229        3.2326718036       -0.6113280733
 C          9.2548173556        1.9857894216       -0.9008948767
 C          8.4789951695        0.8488189339       -0.7507577987
 O          9.0525243703       -0.3458703099       -1.0880561437
 C          8.2932994561       -1.4749163773       -0.9533381580
 C          8.8858244888       -2.6791366484       -1.2929704430
 C          8.1844250987       -3.8649097789       -1.1484833672
 C          6.8957886041       -3.8418834476       -0.6432916218
 C          6.2957403007       -2.6430508597       -0.3040276543
 C          6.9726203777       -1.4363661418       -0.4743528469
 C          4.7689873727        0.3549287629        1.5781245077
 C          3.4738649495        0.4563549118        2.0023392279
 O         -0.0011003365       -0.0538610667        0.7671421720
 C         -2.7274169217       -0.2908823502       -0.1491794434
 C         -4.0301771645       -0.3439429628       -0.5637418234
 H         -8.8484634214       -4.4039615002       -1.3633858105
 H         -6.5396910603       -4.4502121356       -0.4733316240
 H         -5.3957411341       -2.3590126825        0.0998907083
 H        -10.0086775625       -2.2225104449       -1.6284361846
 H        -10.1853384237        2.3286621190       -1.2829737042
 H         -9.1580032399        4.5383629020       -0.7955723339
 H         -6.7945766878        4.6428879958       -0.0682416755
 H         -5.4953837660        2.5850570591        0.2069565522
 H         -5.5501802324        0.9478013728        2.1895121484
 H         -3.1933613528        1.0200820851        2.9573613789
 H          1.9044531745       -0.7234012149       -0.7860815424
 H          4.2486205853       -0.9279780528       -1.5288879346
 H          5.6018157720        2.3005243766        0.2729761974
 H          6.9829166880        4.3063677338        0.0156117349
 H          9.3359789005        4.1140222183       -0.7276671140
 H         10.2677247232        1.8705090873       -1.2516719683
 H          9.8986384364       -2.6642355273       -1.6622399662
 H          8.6509986197       -4.7992675476       -1.4170276964
 H          6.3506152896       -4.7626240204       -0.5055857911
 H          5.2987111966       -2.6337718173        0.1058694882
 H          5.5850341641        0.6385508890        2.2273300795
 H          3.2312821868        0.8236585592        2.9861114669
 H         -1.9304030835       -0.6224375991       -0.7964057418
 H         -4.2791125637       -0.7160333765       -1.5477410090
  69
       -117.47926573
 C         -9.2976730683       -1.7323520279        2.4162544475
 C         -7.9872478584       -1.6124540549        2.8459033748
 C         -7.0168942540       -1.0961725936        2.0065399338
 C         -7.3420049861       -0.6752148835        0.7178685805
 C         -8.6671974929       -0.8385950877        0.2794408720
 C         -9.6330635617       -1.3547000939        1.1264646491
 O         -9.0593433935       -0.5223044292       -0.9917141857
 C         -8.1168841825       -0.0048668812       -1.8360330229
 C         -8.5304236240        0.3266168025       -3.1151461497
 C         -7.6375259183        0.8909221050       -4.0112415678
 C         -6.3362105562        1.1437491038       -3.6129810175
 C         -5.9149673918        0.8135037332       -2.3378928559
 C         -6.7873623993        0.2085613826       -1.4340684880
 N         -6.3947078738       -0.1455030804       -0.1490668680
 C         -5.0595289602        0.0434174972        0.2664420201
 C         -4.7647532496        0.9008827108        1.3400040869
 C         -3.4692245216        1.1139150542        1.7191594578
 C         -2.4051137499        0.4683626491        1.0414460122
 C         -1.0759507411        0.7229679018        1.4147486938
 N         -0.6587398795        1.5356773185        2.3847207843
 N          0.6418059670        1.5404985827        2.3877498207
 C          1.0695406607        0.7310065796        1.4197489867
 C          2.4021012725        0.4882109163        1.0506017341
 C          2.7235135032       -0.3859291278       -0.0169239285
 C          4.0247384431       -0.5696804262       -0.3962833983
 C          5.0614580843        0.0952644992        0.2759310124
 N          6.3975166902       -0.0729447907       -0.1454697746
 C          7.3561814639       -0.5970856328        0.7121527649
 C          7.0453034057       -1.0252383798        2.0019377414
 C          8.0268624197       -1.5362549382        2.8314388821
 C          9.3345148363       -1.6442157230        2.3904759918
 C          9.6561688972       -1.2590043121        1.0994455165
 C          8.6792013353       -0.7472908409        0.2624637509
 O          9.0587220460       -0.4223197214       -1.0103546787
 C          8.1062217823        0.0943455055       -1.8438187859
 C          8.5076537360        0.4390158902       -3.1233238325
 C          7.6036426695        1.0027833807       -4.0084878516
 C          6.3033561108        1.2420548420       -3.5988041415
 C          5.8942511009        0.8988597921       -2.3232412134
 C          6.7781223538        0.2940408825       -1.4305090332
 C          4.7570009417        0.9437100521        1.3538203052
 C          3.4588114349        1.1411219367        1.7328206908
 O          0.0004278447        0.1690630897        0.7547185884
 C         -2.7162251782       -0.4121252753       -0.0239156644
 C         -4.0151821620       -0.6121708655       -0.4030404611
 H        -10.0555074890       -2.1299769909        3.0723143277
 H         -7.7114163697       -1.9261450942        3.8405701594
 H         -5.9953728628       -1.0243374542        2.3431208570
 H        -10.6386952263       -1.4576604773        0.7516443827
 H         -9.5576194653        0.1400676409       -3.3842595673
 H         -7.9648975940        1.1437224010       -5.0071024071
 H         -5.6399569404        1.6067065234       -4.2948124478
 H         -4.9052970114        1.0327231144       -2.0306662786
 H         -5.5748689269        1.4119171352        1.8403202656
 H         -3.2227451012        1.7874041975        2.5236624972
 H          1.9245404690       -0.9054991195       -0.5226798178
 H          4.2710786315       -1.2421032745       -1.2060573070
 H          6.0261558302       -0.9625869428        2.3474133319
 H          7.7619877044       -1.8555927982        3.8272578528
 H         10.1008935087       -2.0383389544        3.0386388055
 H         10.6595784427       -1.3519963315        0.7160578966
 H          9.5341996042        0.2626153823       -3.4015278179
 H          7.9216027032        1.2659732796       -5.0046909944
 H          5.5985205030        1.7050170489       -4.2717250334
 H          4.8850680733        1.1072411102       -2.0071206511
 H          5.5610350669        1.4616960784        1.8567917550
 H          3.2045551277        1.8079608256        2.5404794441
 H         -1.9112733479       -0.9247341447       -0.5272400368
 H         -4.2534576070       -1.2910303226       -1.2098190942
  69
       -117.47908426
 C         -8.1936225307       -3.1795395223       -1.8816428908
 C         -6.8838686531       -3.2385534149       -1.4370318028
 C         -6.2826850781       -2.1275205624       -0.8744800795
 C         -6.9810670222       -0.9273487666       -0.7537927870
 C         -8.3186705175       -0.8864071365       -1.1832774460
 C         -8.9125592774       -2.0031448785       -1.7461805370
 O         -9.0914076137        0.2341696877       -1.0522572371
 C         -8.5191794680        1.3370909880       -0.4808533718
 C         -9.3084919909        2.4677345488       -0.3573321951
 C         -8.7815638052        3.6276962307        0.1866419638
 C         -7.4580864492        3.6563017604        0.5919652649
 C         -6.6627669001        2.5312959925        0.4728475138
 C         -7.1819858580        1.3474347576       -0.0482018709
 N         -6.4096867481        0.2036943248       -0.1890751413
 C         -5.0632667009        0.1869120803        0.2420661357
 C         -4.7583176948        0.3120605401        1.6068036317
 C         -3.4589684620        0.2712651546        2.0297666156
 C         -2.4031618935        0.1319131688        1.0955432294
 C         -1.0713813248        0.0887739041        1.5407033280
 N         -0.6494722358        0.0878713018        2.8032100287
 N          0.6494876239        0.0152547146        2.8044275049
 C          1.0717561876       -0.0223598346        1.5425877829
 C          2.4035615523       -0.0808785713        1.0992692306
 C          2.7246064762       -0.0173272616       -0.2786212060
 C          4.0296142892       -0.0466201940       -0.6896680874
 C          5.0635574324       -0.1717138842        0.2483969222
 N          6.4097999308       -0.2094453124       -0.1817709127
 C          6.9878002463        0.8998020167       -0.7818358801
 C          6.2966874102        2.0998402264       -0.9399972743
 C          6.9042890971        3.1888703502       -1.5375209995
 C          8.2134010970        3.1078779878       -1.9805613117
 C          8.9252660409        1.9320481936       -1.8082552985
 C          8.3249545862        0.8372722037       -1.2101183454
 O          9.0910557003       -0.2831344588       -1.0437637195
 C          8.5123242869       -1.3642058208       -0.4382408602
 C          9.2948202916       -2.4952309502       -0.2796756062
 C          8.7609874943       -3.6345817489        0.2999463455
 C          7.4373793694       -3.6425998930        0.7058257177
 C          6.6488610322       -2.5170444990        0.5518086177
 C          7.1751720119       -1.3529861109       -0.0055226565
 C          4.7579227015       -0.2549160059        1.6162081802
 C          3.4587531664       -0.1962407456        2.0375019776
 O          0.0003017604        0.0209294377        0.6754992603
 C         -2.7235381021        0.0273307938       -0.2799661188
 C         -4.0285792977        0.0392025905       -0.6918533375
 H         -8.6620605143       -4.0456531713       -2.3213014556
 H         -6.3233262174       -4.1565602735       -1.5205527001
 H         -5.2682923882       -2.1841986596       -0.5137980509
 H         -9.9397583355       -1.9301911501       -2.0654901485
 H        -10.3300461522        2.4182558474       -0.6985243065
 H         -9.4019057180        4.5047669354        0.2803340531
 H         -7.0347734441        4.5611721934        0.9992006277
 H         -5.6284276201        2.5638822541        0.7751435003
 H         -5.5665652933        0.4162425008        2.3165191838
 H         -3.2055214967        0.3401636799        3.0750601482
 H          1.9230184473        0.0571185131       -0.9969329951
 H          4.2773347787        0.0040494534       -1.7406739486
 H          5.2826624985        2.1738495496       -0.5814277425
 H          6.3491987117        4.1070770609       -1.6500912711
 H          8.6868108038        3.9568037519       -2.4475451364
 H          9.9519082678        1.8428893452       -2.1251931893
 H         10.3166902816       -2.4623979305       -0.6219195671
 H          9.3762309195       -4.5118400292        0.4215006500
 H          7.0086963146       -4.5317643780        1.1410942658
 H          5.6143634046       -2.5341046537        0.8548631323
 H          5.5657209893       -0.3406011012        2.3289364112
 H          3.2049370083       -0.2328255588        3.0843382068
 H         -1.9214691254       -0.0648498857       -0.9956735973
 H         -4.2758654928       -0.0432176293       -1.7409384451
  69
       -117.47905734
 C         -8.5696057659       -3.3442270822       -0.6321187544
 C         -7.2529365244       -3.3927493396       -0.2077096659
 C         -6.5209588513       -2.2294927776       -0.0545287477
 C         -7.0980823713       -0.9872078211       -0.3132664771
 C         -8.4248420497       -0.9522357411       -0.7748875585
 C         -9.1510111765       -2.1215044994       -0.9248285793
 O         -9.0481336380        0.2168874650       -1.1137031797
 C         -8.3367220978        1.3770463671       -0.9814872039
 C         -8.9791841824        2.5549156132       -1.3226785238
 C         -8.3270652038        3.7690453388       -1.1821259372
 C         -7.0370813772        3.8006045701       -0.6807484286
 C         -6.3875163724        2.6284658408       -0.3392098367
 C         -7.0152807740        1.3947960126       -0.5032934711
 N         -6.3918122759        0.2003898570       -0.1714763164
 C         -5.0561978856        0.1839688820        0.2873451940
 C         -4.7615098809       -0.2866490377        1.5777354497
 C         -3.4679508897       -0.3411914960        2.0147436792
 C         -2.4049582638        0.0507659132        1.1634635276
 C         -1.0759164024       -0.0885664992        1.5945589093
 N         -0.6647316422       -0.5461888593        2.7759179438
 N          0.6354705198       -0.5755548916        2.7769661342
 C          1.0688873698       -0.1375614849        1.5961036333
 C          2.4033720247       -0.0601198678        1.1666655381
 C          2.7387871328        0.4122972500       -0.1259020154
 C          4.0408979725        0.4207174235       -0.5466110915
 C          5.0590035590       -0.0528437167        0.2933514556
 N          6.3942024955       -0.1009059292       -0.1639857509
 C          7.0716474285        1.0609981383       -0.5053553574
 C          6.5006456029        2.3233719518       -0.3526617734
 C          7.2029285330        3.4615968408       -0.7042376287
 C          8.4902796262        3.3669589166       -1.2044770926
 C          9.0867005702        2.1233354298       -1.3333378127
 C          8.3912955947        0.9790289882       -0.9819702912
 O          9.0495669707       -0.2132367320       -1.1028702370
 C          8.3735214204       -1.3498080133       -0.7547467238
 C          9.0462387524       -2.5520017875       -0.8932629914
 C          8.4095701792       -3.7445188804       -0.5912029648
 C          7.0913074156       -3.7296536790       -0.1691522711
 C          6.4125952976       -2.5332287528       -0.0272348630
 C          7.0459013952       -1.3205706511       -0.2950319978
 C          4.7415748992       -0.5028347071        1.5857223914
 C          3.4463384526       -0.4962433903        2.0211633908
 O          0.0044656617        0.2107783336        0.7917619731
 C         -2.7165751514        0.5437145642       -0.1274367405
 C         -4.0164037028        0.6142439922       -0.5493355037
 H         -9.1411875604       -4.2511143677       -0.7491514262
 H         -6.7845024942       -4.3416800782        0.0018954764
 H         -5.4910223423       -2.2777558725        0.2598350378
 H        -10.1670756241       -2.0503554123       -1.2781454683
 H         -9.9911240593        2.4973297314       -1.6902385104
 H         -8.8323785873        4.6826237829       -1.4519966983
 H         -6.5298163565        4.7433972409       -0.5475869710
 H         -5.3897662156        2.6608255779        0.0679711702
 H         -5.5744083609       -0.5883659065        2.2227466811
 H         -3.2227701704       -0.6871334971        3.0056192932
 H          1.9479166375        0.7482284190       -0.7783603577
 H          4.2953127018        0.7616277874       -1.5403716695
 H          5.5055081015        2.4048630808        0.0539654670
 H          6.7392770022        4.4276954991       -0.5791171501
 H          9.0369075300        4.2542126635       -1.4816053045
 H         10.0951868072        2.0165206786       -1.6994030681
 H         10.0649766164       -2.5299913303       -1.2453983590
 H          8.9396229119       -4.6773182095       -0.6993627326
 H          6.5800465591       -4.6544929620        0.0478090966
 H          5.3810192440       -2.5322549905        0.2854913392
 H          5.5390884542       -0.8380909354        2.2333607567
 H          3.1844825997       -0.8256463378        3.0133759788
 H         -1.9103061286        0.8460132486       -0.7774391638
 H         -4.2537282625        0.9715736123       -1.5415810267
