89
 energy: -126.866165460040 gnorm: 0.000108256990 xtb: 6.7.1 (edcfbbe)
C           -5.88573986189089       -3.54847476826615       -0.95624417199239
C           -5.16999496705225       -3.81524394381858        0.37629413930105
C           -6.06628193509241       -3.37502886307922        1.54300714798064
C           -4.92905456803628       -5.32214295525357        0.49712702653879
C           -3.88088662852578       -3.01589045247484        0.41988267812596
C           -2.62995250824403       -3.58603742330455        0.56977921948356
C           -1.48981606544007       -2.79286621125866        0.66289398908869
C           -1.55140671101606       -1.39993675598867        0.58939817263826
C           -0.40472883775231       -0.57593301234637        0.77638531593617
C            0.89095663509978       -1.16285393768275        1.11267400404489
C            1.05462476135743       -1.97559437281270        2.23722962350862
C            2.30244836444091       -2.46707444548903        2.57136353296719
C            3.41085657739113       -2.16599693074012        1.79910308882734
C            3.26200623121773       -1.36138859844395        0.67205464600022
N            4.37581719563427       -1.02375784185918       -0.11125389172222
C            4.48127899047649       -1.17117276498312       -1.47912969570804
C            3.58573336221782       -1.73312750361803       -2.37741802070592
C            3.95588423211442       -1.78516643857869       -3.70749951733024
C            5.18792676364834       -1.29870193415217       -4.13959411435229
C            6.08970988561899       -0.75430703153174       -3.24733804945457
C            5.74069879056902       -0.68966031355383       -1.90478398472087
C            6.41547580176709       -0.21653897853301       -0.72862162833673
C            7.65060517595248        0.37813295763733       -0.50724591630655
C            7.98711863938340        0.74540728739126        0.78032726322990
C            7.10524978391863        0.53847072060225        1.83886056647115
C            5.87178096088871       -0.05286385769120        1.64464093332892
C            5.53748433080098       -0.44378943498814        0.35613349940866
C            2.01005277975593       -0.87061287310191        0.33176475887755
C           -0.50774279494061        0.84305907364942        0.62388559635437
C            0.57091534823077        1.68376167482634        0.88914009889109
C            0.55350608023108        3.05811148278453        0.61468825811393
C            1.80159042787960        3.87330412992413        0.89805598434001
C            1.64978778538097        5.33790024930437        0.48003120378989
C            2.09231599629994        3.82681154510280        2.40516791912845
C            2.98589785744348        3.27177263194691        0.12525407261412
C           -0.60711079915690        3.58373562623197        0.07702949641201
C           -1.73172073599298        2.78403035682878       -0.11605219708174
C           -1.73639993198414        1.42376616315844        0.19589911347345
C           -2.90110169010793        0.60600706037396        0.06290443346990
C           -4.17188410010430        1.20091028072738       -0.31763621029962
C           -4.90978476234794        0.69096058102466       -1.39690899722038
C           -6.11199158069059        1.24931825770078       -1.76351752356697
C           -6.62660179359635        2.33553853228103       -1.04708704032768
C           -7.86269753006715        2.90460795441960       -1.41172784083774
N           -8.87091384502916        3.36677437708107       -1.70881165057446
C           -5.90496987451384        2.85188985976134        0.03448646300572
C           -4.69604998797726        2.29640737708102        0.38421546463301
C           -2.81451267655819       -0.80632301024351        0.30053766524708
C           -3.94381612415659       -1.62026010994344        0.28869011602419
H           -5.24001888506385       -3.81574244838562       -1.79044346097873
H           -6.79290821432722       -4.14560358085550       -1.01768409737013
H           -6.16248117823543       -2.50262134728899       -1.05802197290276
H           -6.99349608875878       -3.94379514794366        1.53631449262775
H           -6.31480992476818       -2.31917837899094        1.47719396741414
H           -5.56151092115516       -3.54823642733172        2.49128843909391
H           -4.31661565406592       -5.68732409139059       -0.32414018537282
H           -4.44473740624944       -5.56677044008769        1.43966141362213
H           -5.88217370342292       -5.84575780112265        0.46390028908952
H           -2.50864185464199       -4.65465465933128        0.63463280702217
H           -0.53186247959248       -3.27409120129974        0.79003286679818
H            0.20215170176198       -2.18709388239018        2.86538162677913
H            2.41586909813015       -3.08881615213143        3.44728258563448
H            4.38492439315439       -2.55404401423462        2.05495291320226
H            2.63485679851788       -2.12554014837459       -2.04894557715950
H            3.27610752910605       -2.21585167191595       -4.42795924112060
H            5.43939608878448       -1.35732469686810       -5.18815707599418
H            7.04932903051655       -0.38894449807573       -3.58077703451313
H            8.32849093164363        0.55195711669908       -1.32930311578408
H            8.94364050599033        1.20769783223281        0.97395682362594
H            7.39086817954462        0.84959476120317        2.83299342102042
H            5.18882437583047       -0.19750756822613        2.46869349763432
H            1.90159838152773       -0.25292612257655       -0.54793681336055
H            1.45878347675304        1.25109062070580        1.32090301519386
H            1.45988283905312        5.42088858813600       -0.58762659224111
H            2.56922378441488        5.87590089550568        0.70093726259648
H            0.84063059868094        5.81890578424837        1.02473297426464
H            2.98602162463822        4.40469152678913        2.62999112562320
H            2.25135133035438        2.80736897842360        2.74650539912316
H            1.25836907871051        4.24781184835544        2.96318366566095
H            3.87602663723728        3.87857279926852        0.27582527348319
H            2.76613381786960        3.24203486958421       -0.94009971782360
H            3.21116059064961        2.26150739000370        0.45623691195904
H           -0.67508863547963        4.62409126256737       -0.19474785612697
H           -2.61665147607833        3.23629112059785       -0.53763850336959
H           -4.50268352995004       -0.13067481450174       -1.96835912820283
H           -6.66424402940091        0.85933965962038       -2.60637986989465
H           -6.30861488243029        3.68391988641683        0.59308611412029
H           -4.15535876305114        2.68041772216639        1.23694180681750
H           -4.90862961893888       -1.15206577967444        0.17676984646158
