89
 energy: -126.865449850753 gnorm: 0.000106462219 xtb: 6.7.1 (edcfbbe)
C           -3.89945478642714       -5.42580130252213       -0.99534673628941
C           -4.30817446094330       -4.48608017396925        0.14865090207444
C           -5.70695984372932       -3.94306076960077       -0.15656293345532
C           -4.37592498838244       -5.27250243776641        1.46593977412945
C           -3.26475210650570       -3.39091667468742        0.28250466398743
C           -1.94664035690318       -3.71714712945538        0.56003959894944
C           -0.98205865698645       -2.73211619643851        0.73082878521445
C           -1.29280344143777       -1.37505188458333        0.61007234646269
C           -0.33238984742134       -0.35591657807548        0.86193350713070
C            1.03498847144577       -0.72127500993309        1.25470482013698
C            1.28626089581227       -1.34852458408693        2.47433145541982
C            2.58055361207297       -1.67186221903328        2.83724820028715
C            3.63763414092149       -1.39526408418822        1.98965219261249
C            3.39686291588616       -0.79739230775007        0.75383482072709
N            4.46319746995568       -0.55544942535431       -0.12245692687561
C            5.45550404054522       -1.46389275644330       -0.44031789100170
C            5.58066619075201       -2.79941150931328       -0.08442609298070
C            6.67044545214220       -3.49768680623406       -0.56794933298774
C            7.61438240531673       -2.89292372655900       -1.39487345334747
C            7.48022035730718       -1.57313396677613       -1.77618222094286
C            6.39211756926019       -0.85150728491938       -1.30360605672328
C            5.93572762743508        0.49362609831617       -1.51207972827331
C            6.43636131309395        1.56623469456381       -2.23759720922578
C            5.74515507824138        2.76070752176928       -2.21483155046022
C            4.57225907622522        2.89277747831828       -1.47580342212362
C            4.05365281875220        1.83850753832050       -0.74871177591939
C            4.73729973962686        0.63160438362895       -0.77417843412599
C            2.09882539752588       -0.45338269010702        0.39742896078539
C           -0.68622006203445        1.02027967468241        0.73000514702099
C            0.20572203425867        2.03278371264796        1.09049641765671
C           -0.08465225773312        3.38940229377468        0.90878868113101
C            0.86797574509173        4.49627026293016        1.32558371291506
C            2.06438024133224        3.98098310565608        2.13074940565629
C            1.38927977679970        5.19146813559179        0.05963300246056
C            0.11695606965829        5.50985383788363        2.20165182884339
C           -1.28450841559820        3.70386731899889        0.29002713810920
C           -2.21015745101277        2.71897196726732       -0.03844432654734
C           -1.97437480256589        1.37132305374708        0.23613239493676
C           -2.94938317829576        0.35218037139298       -0.00663478686735
C           -4.27760104761331        0.71012476130943       -0.47345071411875
C           -4.82897617393315        0.09933929989772       -1.61095151898775
C           -6.08490831117467        0.43334530197043       -2.05975246047831
C           -6.84472586828128        1.38537280623491       -1.37059864677339
C           -8.13583486851052        1.72333861705654       -1.82057930137475
N           -9.18863338031128        1.99818378960865       -2.18770701209120
C           -6.31189665073249        1.99810840856273       -0.23094791814947
C           -5.04822207146101        1.66957518180500        0.20099954779940
C           -2.61716998140158       -1.02592619316488        0.22338230902710
C           -3.57479126997719       -2.03439915289752        0.12418336258326
H           -2.93800712362530       -5.89285485600859       -0.80102948237620
H           -4.64168884021415       -6.21175391448684       -1.11642687928815
H           -3.82734420855911       -4.87264156680892       -1.92958950181013
H           -6.40599211659427       -4.77287605881669       -0.23801627870128
H           -5.72222901021809       -3.39998809125615       -1.09888984616970
H           -6.05728894918611       -3.28803728995398        0.63800491070971
H           -3.42107289497825       -5.73443078372264        1.70105887550922
H           -4.64604670086962       -4.61003152047047        2.28578843871153
H           -5.12601684394754       -6.05714177994858        1.39490388015472
H           -1.64652313170272       -4.74849289414203        0.66497508209381
H            0.03127483359528       -3.02385129687132        0.96224249014558
H            0.46280598355141       -1.55841841449323        3.14067277672584
H            2.77018168644914       -2.13789315854835        3.79299967366480
H            4.65019639287519       -1.62789532879561        2.28178911078222
H            4.84518780063842       -3.28557152796015        0.53866769124220
H            6.79056470266466       -4.53757653965631       -0.30183847810152
H            8.45428187491470       -3.47194448883106       -1.74882347790142
H            8.20029362372097       -1.10838062904201       -2.43264353350337
H            7.35022815953858        1.46364237284562       -2.80301572004635
H            6.11632091805817        3.60800244603652       -2.77180017438694
H            4.05875648724824        3.84310323889594       -1.47046718224952
H            3.14456656108437        1.95518086953972       -0.17914376624023
H            1.90464703534913       -0.00684667170263       -0.56648996414449
H            1.14252429222684        1.73705025838539        1.53317836011487
H            1.73508901833575        3.43506920861110        3.01228077590466
H            2.66685446602236        4.82442661761432        2.46181280166366
H            2.70373065918345        3.33721843766686        1.53235572929396
H            2.10218987918608        5.96934068212666        0.32455010283492
H            0.57646151866948        5.64650385318108       -0.50039533654485
H            1.88524230104306        4.47069095650590       -0.58698010885546
H            0.79538176981057        6.29643062059462        2.52490112409193
H           -0.28578755420764        5.01773831246188        3.08458777076264
H           -0.70482834231314        5.97417559111512        1.66444872230810
H           -1.53229203195284        4.72885051698597        0.06152556432105
H           -3.12888153600208        3.01434697035217       -0.52183104911130
H           -4.23458497771728       -0.61596969299006       -2.16082560607189
H           -6.49261902396906       -0.02995695288980       -2.94662764597724
H           -6.90407298925977        2.72413626244090        0.30709104926097
H           -4.65304582044899        2.12343595812051        1.09810381224334
H           -4.59270122687124       -1.74635103247294       -0.07405071935285
