  89
       -126.86116084
 C         -5.9340941772       -3.5081033451       -0.9512587927
 C         -5.1884897400       -3.8130670754        0.3566468882
 C         -6.0566767069       -3.4017599900        1.5547918922
 C         -4.9506469501       -5.3235249995        0.4299073706
 C         -3.8961511569       -3.0188364541        0.3937133566
 C         -2.6441159170       -3.5963778360        0.5179751259
 C         -1.5013513530       -2.8093198605        0.6093169290
 C         -1.5580780126       -1.4135085098        0.5552861249
 C         -0.4084716425       -0.5982533721        0.7437178643
 C          0.8825315554       -1.1908301018        1.0789442914
 C          1.0385741030       -2.0188295192        2.1948163610
 C          2.2852482303       -2.5046259208        2.5393033231
 C          3.4022818922       -2.1854005069        1.7860155950
 C          3.2606068871       -1.3715851489        0.6647556350
 N          4.3810116176       -1.0170216764       -0.1024170122
 C          4.5101879774       -1.1669675570       -1.4675910389
 C          3.6380815227       -1.7473734548       -2.3771802415
 C          4.0302679948       -1.7992664375       -3.7009809260
 C          5.2609270451       -1.2943939247       -4.1155067421
 C          6.1385752494       -0.7290435317       -3.2119355760
 C          5.7668541442       -0.6632867803       -1.8756511731
 C          6.4135467019       -0.1719826685       -0.6909925951
 C          7.6310009649        0.4517464989       -0.4528132999
 C          7.9383501477        0.8320677981        0.8385069453
 C          7.0455359678        0.6081051173        1.8844629320
 C          5.8288786595       -0.0117034390        1.6734445808
 C          5.5233400044       -0.4130518577        0.3809034542
 C          2.0101126234       -0.8857294398        0.3138437952
 C         -0.5051317901        0.8198452176        0.5988148981
 C          0.5785777570        1.6568785670        0.8637707441
 C          0.5685242287        3.0296819614        0.5881039803
 C          1.8213499978        3.8388681163        0.8673424759
 C          1.6717896011        5.3060969925        0.4579997005
 C          2.1236553192        3.7840899841        2.3719198065
 C          2.9974409083        3.2368149083        0.0822938560
 C         -0.5905523842        3.5613364044        0.0493262293
 C         -1.7198895719        2.7689510480       -0.1377208637
 C         -1.7340982255        1.4089869873        0.1808906808
 C         -2.9054667511        0.6015088463        0.0592138664
 C         -4.1748968679        1.2080898949       -0.2919648037
 C         -4.9552122718        0.6977531703       -1.3433994033
 C         -6.1590241758        1.2694707916       -1.6790393147
 C         -6.6382111347        2.3707336866       -0.9588382350
 C         -7.8770044642        2.9503972810       -1.2916219472
 N         -8.8878363248        3.4270407077       -1.5571578304
 C         -5.8747360426        2.8885569057        0.0944206091
 C         -4.6636136121        2.3212693189        0.4118677048
 C         -2.8222468850       -0.8116876210        0.2843967750
 C         -3.9555230449       -1.6222126642        0.2842317357
 H         -5.3059745106       -3.7471879125       -1.8071574293
 H         -6.8404529339       -4.1066074315       -1.0112854646
 H         -6.2169465990       -2.4609380241       -1.0149179140
 H         -6.9884784995       -3.9630038296        1.5504474077
 H         -6.2973157547       -2.3424037758        1.5258514252
 H         -5.5336601894       -3.6074790148        2.4865252363
 H         -4.3545154423       -5.6663652648       -0.4127713490
 H         -4.4501129803       -5.5969076807        1.3558890031
 H         -5.9060151477       -5.8432321440        0.3992552788
 H         -2.5267385896       -4.6663729519        0.5646789995
 H         -0.5433258097       -3.2950139120        0.7176432880
 H          0.1800115400       -2.2426613431        2.8102439924
 H          2.3920519256       -3.1356227250        3.4094158246
 H          4.3763071683       -2.5665702593        2.0520884839
 H          2.6882315055       -2.1527286274       -2.0617141411
 H          3.3689719922       -2.2437139249       -4.4302806300
 H          5.5306344561       -1.3545294732       -5.1594208420
 H          7.0969061928       -0.3487502549       -3.5320289336
 H          8.3176516540        0.6380876673       -1.2648455783
 H          8.8804295369        1.3178920777        1.0448853334
 H          7.3089931950        0.9285355342        2.8818001939
 H          5.1367179532       -0.1705970087        2.4872212709
 H          1.9086242130       -0.2631654769       -0.5633077897
 H          1.4632452901        1.2207705369        1.2985767596
 H          1.4772504330        5.3958943239       -0.6082809341
 H          2.5937722038        5.8402282288        0.6776356412
 H          0.8664345635        5.7859954972        1.0093129069
 H          3.0191720571        4.3607220505        2.5925170519
 H          2.2860055904        2.7630573071        2.7066823975
 H          1.2944415147        4.2019919235        2.9392221611
 H          3.8922566832        3.8366184600        0.2327669345
 H          2.7716772922        3.2169456754       -0.9820465345
 H          3.2181674136        2.2226215960        0.4039960401
 H         -0.6512760385        4.6007233121       -0.2276507585
 H         -2.6014924371        3.2242251739       -0.5629309837
 H         -4.5752073861       -0.1318739154       -1.9219879132
 H         -6.7410979233        0.8804469478       -2.5021133585
 H         -6.2499740346        3.7311715263        0.6570802376
 H         -4.0930522932        2.7052490899        1.2449901730
 H         -4.9203818845       -1.1485812098        0.2003322268
