89
 energy: -126.928833628416 gnorm: 0.000088509436 xtb: 6.7.1 (edcfbbe)
C           -3.70458105336211       -5.37763500378237       -1.14623402102612
C           -4.21943266501531       -4.46648978718621       -0.02284102578822
C           -5.60820434119938       -3.95819526124268       -0.41987847253384
C           -4.35644480607844       -5.26949178522087        1.27838587954750
C           -3.22441086119053       -3.33967967752802        0.19518166520655
C           -1.89311856926268       -3.66310619369004        0.56261410486257
C           -0.96451895491893       -2.69906051942091        0.79437314679673
C           -1.28212395860567       -1.32235553918357        0.66983777316245
C           -0.34552806694342       -0.31646776087620        0.93095153293662
C            1.03022549914687       -0.66821408151655        1.34485460596770
C            1.29999450309825       -1.11394149035315        2.63422996930589
C            2.60083444158466       -1.39849117704444        3.01104601740946
C            3.64266437099736       -1.23578166558655        2.11677239354221
C            3.38021130485377       -0.80670901633265        0.81786164034710
N            4.42960709697232       -0.63261158984092       -0.09370083985276
C            5.45981910896913       -1.52440522440738       -0.32132716322415
C            5.64814999982740       -2.80538234774103        0.17801078304629
C            6.76568573601611       -3.50300500052748       -0.23839072948102
C            7.67527852685214       -2.95120037514388       -1.13777748422346
C            7.47897846877497       -1.68846190905323       -1.65953826074504
C            6.36249006367149       -0.96813497223250       -1.25619826120287
C            5.84593748549447        0.32620653038973       -1.60173853996274
C            6.29357373832548        1.33689528954519       -2.44211357625798
C            5.55177600023943        2.49707367436696       -2.53592241103494
C            4.38148417161849        2.65799518238686       -1.79820897273110
C            3.91512025058389        1.66564031518916       -0.95765727093215
C            4.64842135957152        0.49095512480552       -0.86815894061947
C            2.07189859351230       -0.53306735189358        0.43614704222908
C           -0.69629222867214        1.03315448371904        0.78866852940933
C            0.21865702869601        2.07215569397181        1.10322580143200
C           -0.08777266273747        3.39218809346158        0.94041149821618
C            0.87173152636303        4.52063384996467        1.27779248671184
C            2.16039617036246        4.02390184347631        1.93936617902044
C            1.24246940270256        5.25193817846071       -0.02007562033757
C            0.18895990598887        5.49376765141400        2.24954461904938
C           -1.36414007481743        3.71321329750929        0.41143936118371
C           -2.28296894644458        2.75299721272323        0.12826326065491
C           -2.00385430192187        1.37741650361674        0.33395752381618
C           -2.94514887693256        0.37029338508208        0.07945110424204
C           -4.30194914881304        0.73293264422310       -0.37353130922287
C           -4.74089573967583        0.37775467608075       -1.64845431899129
C           -6.00993385038868        0.71006454780229       -2.07491082238905
C           -6.86704217370948        1.40687075114410       -1.22143369023072
C           -8.16898876334957        1.74826165682411       -1.65073543070253
N           -9.22594767783904        2.02561829572133       -1.99851843227892
C           -6.43676574315002        1.76673963695030        0.05668209339074
C           -5.16408050704279        1.43152859435402        0.47033013291086
C           -2.60398082074877       -0.97929185368786        0.25685374477927
C           -3.54672490555988       -2.02059767378583        0.05430630979934
H           -2.74707002832972       -5.82335929810203       -0.89156840760900
H           -4.41468754895369       -6.18097847980229       -1.33017946880207
H           -3.58197714967934       -4.80843890972692       -2.06551926495282
H           -6.27625966526277       -4.80487963906629       -0.56347889154877
H           -5.56980306483085       -3.39935030990463       -1.35227840625140
H           -6.03164416433322       -3.32514519266361        0.35666241927759
H           -3.40785744232451       -5.70596794905002        1.57872562167457
H           -4.70525774533561       -4.62465995955854        2.08252615536330
H           -5.07499670336173       -6.07551670391632        1.14620018083014
H           -1.60816490901944       -4.69875446635170        0.66884627182534
H            0.04074611074374       -2.97110734249045        1.08154600897422
H            0.48885306384537       -1.22513521802116        3.33844187539316
H            2.80783649911797       -1.73517360908133        4.01620365096521
H            4.66099390179166       -1.42225449970068        2.42210977372325
H            4.93993437168079       -3.25134568221036        0.86001774607520
H            6.93571223913356       -4.50058025513025        0.13924840040507
H            8.53851914162719       -3.52746905356261       -1.43572498969208
H            8.17343619923119       -1.26691744270485       -2.37055569291398
H            7.20640008615826        1.21411423540378       -3.00524097943935
H            5.88131697319304        3.29542841683455       -3.18399637233245
H            3.82690797714242        3.58109322492691       -1.88456761189464
H            3.00849006210848        1.80697906502552       -0.38946611876138
H            1.85922082288797       -0.22280972412256       -0.57614099894399
H            1.17744845764421        1.77230887831096        1.49371124289238
H            1.94340453787454        3.46999858493083        2.85012499558729
H            2.78314923669339        4.87629464960162        2.20307090960642
H            2.73523826183673        3.39152685979484        1.26757669508522
H            1.94547865637965        6.05522407751937        0.18972189666165
H            0.36524624380479        5.68105376264951       -0.49716747855525
H            1.70635022906838        4.56001997951299       -0.72017712445902
H            0.87626283047249        6.29231361617122        2.52060654385906
H           -0.10748950242285        4.97148368776351        3.15700190624094
H           -0.69609501419355        5.94605611800559        1.81132388212236
H           -1.61958191267200        4.74630608993554        0.23126483502441
H           -3.24777552542747        3.03398726646872       -0.26821671679114
H           -4.07164901891329       -0.15711026921750       -2.30665988866841
H           -6.34791808535004        0.43673865715293       -3.06386364442984
H           -7.10519484761112        2.30470577519725        0.71297965096801
H           -4.82831001653436        1.70275611634142        1.46069367473104
H           -4.54777690222434       -1.72784280421951       -0.21516389001154
