  101
       -159.80542117
 N        -11.1307492937       -7.1196440660       -0.5505661766
 C        -10.1946306748       -6.4603909979       -0.4844426935
 C         -9.0395185677       -5.6511858807       -0.4063537268
 C         -9.0149171524       -4.5467134229        0.4465871418
 C         -7.8849441975       -3.7596981210        0.5159868229
 C         -6.7583155849       -4.0537781392       -0.2534087908
 C         -5.5555807172       -3.2144656719       -0.1748978513
 C         -4.2831170818       -3.8038828338       -0.1575333064
 C         -3.1657532599       -3.0147760038       -0.0895442925
 C         -3.2813110979       -1.6209681729       -0.0428088888
 C         -4.5500947314       -0.9980412926       -0.0490986766
 C         -5.6694251360       -1.8363559827       -0.1192165713
 C         -4.6529815088        0.4495309703        0.0342889177
 C         -5.8947710160        1.0903236176        0.0904689113
 C         -6.0239591067        2.4616476820        0.2206738665
 C         -7.3521824226        3.0843268905        0.2710691745
 C         -8.3758191416        2.6435372742       -0.5691529279
 C         -9.6244569106        3.2269102368       -0.5301496370
 C         -9.8750583813        4.2699737784        0.3627395030
 C        -11.1513292203        4.8737219604        0.4072995835
 N        -12.1870508179        5.3645541022        0.4448643726
 C         -8.8602520002        4.7175108043        1.2102129998
 C         -7.6144919913        4.1292831052        1.1582272095
 C         -4.8655273864        3.2416706036        0.3172867105
 C         -3.6299663918        2.6530057933        0.2484755115
 C         -3.4887113208        1.2663220216        0.0877877415
 C         -2.2324436805        0.6060806896        0.0064362643
 C         -2.1324174603       -0.7859186654       -0.0084493526
 N         -0.8296438889       -1.1642999624       -0.0094992260
 C         -0.1294280902       -0.0566661176       -0.0123656802
 C          1.3226657817       -0.0459612230       -0.0326020728
 C          2.0736404498        0.9203554695       -0.7001901378
 C          3.4520096935        0.8594752429       -0.6927710184
 C          4.1257406142       -0.1667195146       -0.0316630272
 C          5.5906552481       -0.2257921956       -0.0273827418
 C          6.3570607976        0.9338483126        0.0865365211
 C          7.7341139577        0.8796240752        0.1027688499
 C          8.3967656774       -0.3438229494       -0.0110862141
 N          9.7904092244       -0.4045805246        0.0021920084
 C         10.4408505226       -1.4903721949        0.6026620357
 C          9.9407237832       -2.0550056028        1.7755503937
 C         10.5861287448       -3.1264017590        2.3617814822
 C         11.7397902106       -3.6454898696        1.7973549433
 C         12.2433719608       -3.0848504891        0.6349526172
 C         11.6006007683       -2.0186561284        0.0365447799
 C         10.5469739536        0.6192311550       -0.5813826131
 C         10.1226363520        1.2291062552       -1.7615940527
 C         10.8736596694        2.2385249660       -2.3317262822
 C         12.0585493721        2.6500079514       -1.7437673393
 C         12.4867969226        2.0439969443       -0.5739738655
 C         11.7387770664        1.0394126436        0.0083787320
 C          7.6348142573       -1.5069617572       -0.1370431532
 C          6.2583895844       -1.4456365851       -0.1368088810
 C          3.3681232053       -1.1437022422        0.6158528229
 C          1.9919725751       -1.0867836240        0.6139464339
 N         -0.9339695918        1.0628369091       -0.0055638917
 C         -0.4713051153        2.3940323945        0.0056091729
 C          0.2718532010        2.8537603087        1.0860911206
 C          0.7527967732        4.1508488561        1.0828534936
 C          0.4944346255        4.9879173431        0.0101608075
 C         -0.2462016194        4.5274446971       -1.0669270348
 C         -0.7279761100        3.2314282061       -1.0761964552
 C         -6.7937154784       -5.1628541318       -1.0998131631
 C         -7.9193483599       -5.9546270358       -1.1821171833
 H         -9.8820430381       -4.3189508744        1.0493582424
 H         -7.8628897732       -2.9173003075        1.1917549404
 H         -4.1928533444       -4.8797919229       -0.1765664493
 H         -2.1737620313       -3.4383242416       -0.0751313490
 H         -6.6618691093       -1.4158785505       -0.1594781725
 H         -6.7993863837        0.5043874939        0.0642935937
 H         -8.1803966609        1.8497209810       -1.2751038021
 H        -10.4113165612        2.8866387219       -1.1873759873
 H         -9.0604229975        5.5217800953        1.9030187786
 H         -6.8369902665        4.4671729825        1.8272655933
 H         -4.9454613491        4.3133155170        0.4232655183
 H         -2.7496399112        3.2698860045        0.3323328383
 H          1.5847632157        1.7081822805       -1.2530657153
 H          4.0164951811        1.6050501555       -1.2333316529
 H          5.8648650638        1.8889459475        0.1981953721
 H          8.3102829008        1.7867469350        0.2126395359
 H          9.0472757738       -1.6448834807        2.2234366098
 H         10.1897202373       -3.5531410641        3.2714359274
 H         12.2430501353       -4.4806602119        2.2602703019
 H         13.1395762055       -3.4861321783        0.1850543730
 H         11.9898387340       -1.5886442219       -0.8747971667
 H          9.2048216004        0.9018882661       -2.2280491786
 H         10.5353304512        2.7008168231       -3.2474510988
 H         12.6443536766        3.4367336209       -2.1943213126
 H         13.4070732424        2.3612975977       -0.1058931955
 H         12.0703731843        0.5739507870        0.9251224723
 H          8.1341373690       -2.4590031858       -0.2420411421
 H          5.6892452800       -2.3554320876       -0.2576286862
 H          3.8684109949       -1.9432303589        1.1418339986
 H          1.4063779542       -1.8428445066        1.1131458990
 H          0.4698194984        2.1916127110        1.9158487166
 H          1.3295607952        4.5081868419        1.9224238355
 H          0.8708403789        5.9996069610        0.0117122010
 H         -0.4460667838        5.1774852785       -1.9055000342
 H         -1.3031325369        2.8596896732       -1.9119407122
 H         -5.9345658073       -5.3907632115       -1.7131694062
 H         -7.9444665346       -6.8082251585       -1.8436625859
