  52
  -79.9993683499000       0.302775985270749      !
 C          0.0005578942       -2.1930034433        2.3036653054
 C          1.2010917994       -1.7129336564        1.8141711689
 C          1.2031499433       -0.7420594286        0.8154683584
 N          2.4176468869       -0.2703292934        0.3013111619
 C          2.7886790120        1.0537406382        0.1698051029
 C          2.1068465424        2.2043427516        0.5362773455
 C          2.7241244931        3.4207957870        0.3174957130
 C          3.9969885053        3.4988999680       -0.2427480462
 C          4.6922913277        2.3566212838       -0.5857220580
 C          4.0904880964        1.1227472752       -0.3768236683
 C          4.5167298729       -0.2321837107       -0.5885358311
 C          5.6733098588       -0.7990613987       -1.1073533531
 C          5.7543689341       -2.1743892148       -1.1940885092
 C          4.6945253473       -2.9811824591       -0.7861410979
 C          3.5339924143       -2.4404346446       -0.2664936259
 C          3.4567882267       -1.0598710814       -0.1534049434
 C         -0.0012303368       -0.2584147287        0.3169469368
 C         -1.2047770711       -0.7408013391        0.8188641492
 N         -2.4199274545       -0.2687363294        0.3066370806
 C         -2.7880149898        1.0555055099        0.1689652343
 C         -2.1053112987        2.2060712358        0.5339283907
 C         -2.7194212145        3.4228417609        0.3085228371
 C         -3.9897427810        3.5013482827       -0.2574345040
 C         -4.6862502895        2.3592396531       -0.5983310346
 C         -4.0881042351        1.1249479893       -0.3817627293
 C         -4.5167860904       -0.2299908321       -0.5886065103
 C         -5.6736096988       -0.7966253633       -1.1071775367
 C         -5.7576034198       -2.1720835219       -1.1878804336
 C         -4.7004640081       -2.9794176540       -0.7740179938
 C         -3.5397884159       -2.4389477942       -0.2545209497
 C         -3.4595852721       -1.0580723307       -0.1474997952
 C         -1.2009173957       -1.7113105177        1.8179269312
 H          0.0012791704       -2.9408047616        3.0824371242
 H          2.1386529981       -2.0736531440        2.2080548126
 H          1.1302020598        2.1542600674        0.9921202949
 H          2.2100825436        4.3303267951        0.5912001187
 H          4.4457094574        4.4684598684       -0.3997367570
 H          5.6857260097        2.4156525097       -1.0039929319
 H          6.4876651919       -0.1725174808       -1.4385122595
 H          6.6459014600       -2.6358470185       -1.5919247544
 H          4.7802210745       -4.0536610159       -0.8811446338
 H          2.7116847344       -3.0740854864        0.0300993701
 H         -0.0019722416        0.4679382247       -0.4817726634
 H         -1.1310070171        2.1556359850        0.9945895678
 H         -2.2048923904        4.3323590002        0.5814293925
 H         -4.4359403627        4.4711532619       -0.4199383099
 H         -5.6780945605        2.4187727038       -1.0204000579
 H         -6.4855158671       -0.1697129295       -1.4434248221
 H         -6.6496931875       -2.6333164761       -1.5848559583
 H         -4.7887502026       -4.0521163702       -0.8635990737
 H         -2.7195541966       -3.0731587884        0.0464667980
 H         -2.1377270030       -2.0696032168        2.2159514951
  52
  -79.9990390421000       0.213688937462607      !
 C         -0.0919578180       -1.0353953272        2.9836127287
 C          1.1245301924       -0.7148860304        2.4087613758
 C          1.1710397999       -0.2862607287        1.0854645827
 N          2.4031648135        0.0123597187        0.4851178472
 C          3.3239217620        0.9315727692        0.9431592597
 C          3.2357299683        1.8023645799        2.0189481723
 C          4.2969664257        2.6590116897        2.2406068854
 C          5.4181004858        2.6565081609        1.4132334522
 C          5.5050874267        1.7992682471        0.3345114961
 C          4.4511744205        0.9286153199        0.0898174966
 C          4.1945902856       -0.0598126410       -0.9205503634
 C          4.9267036717       -0.5425648365       -1.9974275518
 C          4.3814173456       -1.5484957572       -2.7702373874
 C          3.1250956442       -2.0767185280       -2.4801370267
 C          2.3757527043       -1.6116530038       -1.4165533404
 C          2.9158547023       -0.5950575993       -0.6428873035
 C         -0.0024058638       -0.1637425604        0.3518500582
 C         -1.2228832214       -0.4700975399        0.9419847515
 N         -2.4103319408       -0.2994596354        0.2181040675
 C         -2.8198432533        0.8775706739       -0.3780713016
 C         -2.1849582549        2.1098487897       -0.4243275176
 C         -2.8403285493        3.1481174171       -1.0582393842
 C         -4.0983722538        2.9726275198       -1.6303792993
 C         -4.7405448704        1.7518277027       -1.5746479659
 C         -4.1030477919        0.6929327297       -0.9413937098
 C         -4.4743711704       -0.6687969334       -0.6742339580
 C         -5.5878286266       -1.4367244803       -0.9883894507
 C         -5.6164483640       -2.7565182366       -0.5840154469
 C         -4.5497625216       -3.3159836986        0.1161570326
 C         -3.4315462315       -2.5723642534        0.4417597436
 C         -3.4055400059       -1.2412374344        0.0526619854
 C         -1.2643633231       -0.9182226419        2.2596906681
 H         -0.1271548122       -1.3758166827        4.0075767287
 H          2.0419587907       -0.8063698258        2.9701866819
 H          2.3635446822        1.8159926986        2.6559023826
 H          4.2546699277        3.3489649787        3.0704811886
 H          6.2262571704        3.3427934540        1.6192118515
 H          6.3698199801        1.8062367879       -0.3118158137
 H          5.9053496962       -0.1426580811       -2.2163887642
 H          4.9357251225       -1.9392543258       -3.6106069019
 H          2.7287976304       -2.8678596611       -3.0996426381
 H          1.4067946950       -2.0316128484       -1.1902749917
 H          0.0347009731        0.1703419991       -0.6743307840
 H         -1.2167760099        2.2590493588        0.0299044267
 H         -2.3680293621        4.1180990238       -1.1075819815
 H         -4.5775010967        3.8092429187       -2.1167765541
 H         -5.7212214471        1.6199901159       -2.0062310277
 H         -6.4085717792       -1.0079254495       -1.5433717617
 H         -6.4728305086       -3.3709962392       -0.8189784223
 H         -4.5967414828       -4.3547135275        0.4084245448
 H         -2.6030285042       -3.0153892621        0.9743053825
 H         -2.2163325572       -1.1507873661        2.7119919428
  52
  -79.9988742474000       0.179493050782129      !
 C          0.0040246899       -2.0641377939        2.4260154228
 C          1.2030855101       -1.6179974578        1.9009651468
 C          1.1972326228       -0.6710095979        0.8815733713
 N          2.4121232500       -0.2202316956        0.3402792551
 C          2.8754920432        1.0778832049        0.3485195381
 C          2.2958142891        2.2148890759        0.8910542493
 C          2.9973134508        3.4014285382        0.7980127112
 C          4.2468509308        3.4599232295        0.1840057182
 C          4.8325347600        2.3288088584       -0.3487403915
 C          4.1480551632        1.1232724552       -0.2666136607
 C          4.4516765417       -0.2203150414       -0.6742370599
 C          5.5209134143       -0.8041053383       -1.3411815597
 C          5.4790865365       -2.1598093886       -1.5992423270
 C          4.3885568345       -2.9334817705       -1.2069065808
 C          3.3137441071       -2.3774912862       -0.5405110378
 C          3.3566916245       -1.0179366680       -0.2701935130
 C         -0.0048656701       -0.1935961221        0.3764858304
 C         -1.2078949554       -0.6620660481        0.8938776205
 N         -2.4246522957       -0.2419650177        0.3460322025
 C         -2.7994768916        1.0574518733        0.0613915665
 C         -2.1330406825        2.2480335305        0.3117436737
 C         -2.7522393629        3.4262202342       -0.0600615149
 C         -4.0101799164        3.4300582718       -0.6580456114
 C         -4.6901234742        2.2505868322       -0.8863417068
 C         -4.0870999142        1.0541262395       -0.5224150799
 C         -4.4978230511       -0.3198233394       -0.6018529494
 C         -5.6340523398       -0.9489538747       -1.0935009220
 C         -5.6990519677       -2.3270761386       -1.0488949737
 C         -4.6415717728       -3.0765944328       -0.5391860013
 C         -3.5020892608       -2.4728818602       -0.0429015426
 C         -3.4431953511       -1.0867374197       -0.0576472630
 C         -1.1975944713       -1.5875530140        1.9358338545
 H          0.0056958274       -2.7836989659        3.2308927227
 H          2.1446904507       -1.9864171863        2.2785339785
 H          1.3351804497        2.1700594272        1.3826283284
 H          2.5713782240        4.3022643305        1.2148412926
 H          4.7648599688        4.4061135282        0.1337261799
 H          5.8057093229        2.3739176148       -0.8140330781
 H          6.3622324999       -0.2051606138       -1.6557795267
 H          6.2991691560       -2.6318738735       -2.1195511047
 H          4.3812653932       -3.9895770743       -1.4331301535
 H          2.4651689858       -2.9776764110       -0.2468935233
 H         -0.0013185786        0.5127387011       -0.4400543095
 H         -1.1653659375        2.2609330583        0.7894229871
 H         -2.2497309893        4.3652225126        0.1191466335
 H         -4.4590642798        4.3714257146       -0.9378827759
 H         -5.6716686701        2.2526696901       -1.3358008104
 H         -6.4442042195       -0.3678616134       -1.5073035292
 H         -6.5741415138       -2.8364829908       -1.4238717808
 H         -4.7110423031       -4.1544165311       -0.5352533727
 H         -2.6808129114       -3.0663734925        0.3292694754
 H         -2.1322702905       -1.9217912074        2.3589731946
  52
  -79.9985347289000       0.125318659271418      !
 C         -0.0008059328       -3.1215857944        0.6224811217
 C          1.1994856978       -2.4620257536        0.4311940402
 C          1.2018217681       -1.0973390770        0.1545848332
 N          2.4102161891       -0.4232070526       -0.0623282592
 C          2.7125217696        0.3538375035       -1.1637326112
 C          1.9470853522        0.6280661312       -2.2876391499
 C          2.5097973598        1.4158421259       -3.2735893937
 C          3.8041577956        1.9168994245       -3.1541849852
 C          4.5769091506        1.6316711073       -2.0463634728
 C          4.0338232785        0.8412350566       -1.0420099478
 C          4.5428520954        0.3357876144        0.2024474999
 C          5.7496343895        0.4845205558        0.8730946366
 C          5.9075338300       -0.1361068951        2.0961525063
 C          4.8772256151       -0.8873620646        2.6573418529
 C          3.6677600431       -1.0506486199        2.0093072979
 C          3.5110832113       -0.4457601475        0.7708085161
 C          0.0000787224       -0.4033362779        0.0784138616
 C         -1.2021454654       -1.0722861705        0.2755019762
 N         -2.4099439421       -0.3656141907        0.2175399221
 C         -2.7098340077        0.7764451272        0.9346930574
 C         -1.9415145483        1.4631050299        1.8633599994
 C         -2.5020426830        2.5707512060        2.4702606966
 C         -3.7972760288        2.9870352105        2.1707303925
 C         -4.5730670807        2.2961466940        1.2615541202
 C         -4.0320647259        1.1791831170        0.6385468375
 C         -4.5441905186        0.2328050347       -0.3129444005
 C         -5.7531878886        0.1114729929       -0.9850751254
 C         -5.9141460344       -0.9330277007       -1.8733912121
 C         -4.8846529371       -1.8426783981       -2.1047007445
 C         -3.6730206047       -1.7434646274       -1.4477828848
 C         -3.5132902527       -0.7077043905       -0.5389246235
 C         -1.2006097237       -2.4383502423        0.5453962829
 H         -0.0011943921       -4.1802769563        0.8342387186
 H          2.1352422143       -2.9975804632        0.4774849551
 H          0.9490238290        0.2309014458       -2.3972869419
 H          1.9341620844        1.6445968536       -4.1583399166
 H          4.2076455955        2.5292429158       -3.9468062138
 H          5.5854204731        2.0072033217       -1.9608731034
 H          6.5429199249        1.0786746208        0.4451463352
 H          6.8380625749       -0.0327262858        2.6341793120
 H          5.0252632215       -1.3485602725        3.6227251018
 H          2.8686554439       -1.6212090396        2.4587012197
 H          0.0005314462        0.6552230031       -0.1335989248
 H         -0.9430957974        1.1384124787        2.1156006306
 H         -1.9245048064        3.1224049086        3.1973321610
 H         -4.1992878193        3.8576904065        2.6670905274
 H         -5.5818499823        2.6103685568        1.0400366836
 H         -6.5459574881        0.8246171270       -0.8165926720
 H         -6.8470536197       -1.0461881630       -2.4052643229
 H         -5.0354362276       -2.6412384140       -2.8161385168
 H         -2.8747576732       -2.4434712643       -1.6447895931
 H         -2.1366385723       -2.9497945259        0.7092706653
  52
  -79.9983960327000       0.108211988986506      !
 C         -0.0010682620        2.2763615583        2.2415351822
 C          1.1972950961        1.8500200599        1.6992499384
 C          1.1993105352        0.8633467677        0.7162848311
 N          2.4065788144        0.4203454223        0.1631623931
 C          3.4083947503        1.2267857526       -0.3418072469
 C          3.4463914878        2.6065492612       -0.4817698416
 C          4.5731318410        3.1659732804       -1.0537755051
 C          5.6370209352        2.3779809704       -1.4869010382
 C          5.5942740438        1.0028941912       -1.3725203283
 C          4.4724512534        0.4173655871       -0.8008352451
 C          4.0882890796       -0.9436553062       -0.5499505198
 C          4.7137435529       -2.1657330718       -0.7589773401
 C          4.0604082105       -3.3180266810       -0.3704164424
 C          2.8062605704       -3.2610766656        0.2332742792
 C          2.1640520172       -2.0572177798        0.4518991908
 C          2.8053324365       -0.8973356954        0.0418297809
 C         -0.0017588262        0.3072473624        0.2915464840
 C         -1.2023486522        0.7369554431        0.8449422236
 N         -2.4095100536        0.1753705056        0.4120266683
 C         -3.4038549780       -0.3281972834        1.2284649283
 C         -3.4348805392       -0.4522715044        2.6099147265
 C         -4.5548030965       -1.0261205380        3.1808848059
 C         -5.6185869784       -1.4767455371        2.4025264149
 C         -5.5823879429       -1.3785280280        1.0259932087
 C         -4.4674687316       -0.8052600937        0.4289056664
 C         -4.0906794554       -0.5674886995       -0.9365398841
 C         -4.7184526608       -0.7973767674       -2.1536597653
 C         -4.0725249500       -0.4177350885       -3.3130623708
 C         -2.8236090019        0.1976024844       -3.2682760156
 C         -2.1789487826        0.4365990123       -2.0696079287
 C         -2.8124781138        0.0352802301       -0.9024117820
 C         -1.1998208702        1.7297432859        1.8215735755
 H         -0.0008240645        3.0440690768        3.0007399481
 H          2.1332881203        2.2634503003        2.0417688252
 H          2.6199632784        3.2253204511       -0.1652062358
 H          4.6282532943        4.2383144941       -1.1704912497
 H          6.5011734996        2.8536819019       -1.9259834743
 H          6.4111155126        0.3904684829       -1.7238870535
 H          5.6931733242       -2.2077566722       -1.2105475636
 H          4.5281831095       -4.2788245752       -0.5252738672
 H          2.3256359820       -4.1780604723        0.5408572816
 H          1.2005234639       -2.0250494237        0.9376228906
 H         -0.0022818293       -0.4595485232       -0.4680482836
 H         -2.6081314083       -0.1227860473        3.2212412715
 H         -4.6044556422       -1.1308108422        4.2547353368
 H         -6.4773782884       -1.9169175019        2.8870671034
 H         -6.3993033108       -1.7425878779        0.4214006172
 H         -5.6937847872       -1.2589512298       -2.1865839879
 H         -4.5421512097       -0.5891347529       -4.2701587913
 H         -2.3492075018        0.4980217312       -4.1908671255
 H         -1.2194404900        0.9310642280       -2.0466537200
 H         -2.1355999761        2.0769802182        2.2316393861
  52
  -79.9978965678000       6.378773838331632E-002 !
 C         -0.1281789383       -1.0407898103        3.0311780843
 C          1.1014382668       -0.8053979854        2.4446602616
 C          1.1643224461       -0.3349536037        1.1347291088
 N          2.4008185755       -0.0356698358        0.5526998198
 C          3.4052830618        0.7073475245        1.1483396991
 C          3.4439830046        1.3120521824        2.3968827926
 C          4.5825172713        2.0157707082        2.7408063202
 C          5.6585322004        2.1342102049        1.8646263245
 C          5.6119020282        1.5669372839        0.6071483543
 C          4.4787386853        0.8531052964        0.2405926951
 C          4.0942883150        0.1686680112       -0.9616569954
 C          4.7232260321       -0.0316928601       -2.1831592758
 C          4.0705514946       -0.7700640732       -3.1494993739
 C          2.8184236935       -1.3257295829       -2.8983164760
 C          2.1739605728       -1.1407008529       -1.6898191367
 C          2.8070522380       -0.3665327209       -0.7275631698
 C         -0.0088018917       -0.1583005541        0.4087580785
 C         -1.2416361370       -0.4212931800        0.9956911464
 N         -2.4195418889       -0.2684342213        0.2565393077
 C         -2.7388500744        0.7913446304       -0.5734308128
 C         -2.0401230910        1.9620545012       -0.8328889025
 C         -2.6023734713        2.8710687499       -1.7090998953
 C         -3.8383803628        2.6388304622       -2.3072981345
 C         -4.5563022167        1.4942909002       -2.0250846923
 C         -4.0094979145        0.5649287873       -1.1504623959
 C         -4.4741283081       -0.6939481469       -0.6396417892
 C         -5.6300341722       -1.4355228772       -0.8447949738
 C         -5.7588968995       -2.6508259082       -0.2032915536
 C         -4.7412275144       -3.1379954721        0.6132357853
 C         -3.5820714662       -2.4179477709        0.8312756063
 C         -3.4625671753       -1.1773696551        0.2206949415
 C         -1.2985659057       -0.8392503683        2.3238525180
 H         -0.1749252734       -1.3844619852        4.0537301875
 H          2.0127161931       -0.9931724911        2.9904082071
 H          2.6098380148        1.2509762627        3.0790142869
 H          4.6372576807        2.4858800315        3.7116843133
 H          6.5334278154        2.6863544335        2.1738401950
 H          6.4356126097        1.6748158330       -0.0822314855
 H          5.7033538410        0.3819025349       -2.3665993621
 H          4.5372602753       -0.9310732344       -4.1098426773
 H          2.3389790106       -1.9159726156       -3.6652021503
 H          1.2141099958       -1.5982089036       -1.5042488868
 H          0.0382179577        0.1843698877       -0.6127301401
 H         -1.0933078324        2.1717415975       -0.3591289710
 H         -2.0706680818        3.7842583361       -1.9324413227
 H         -4.2399290046        3.3704430439       -2.9924618069
 H         -5.5231540788        1.3194605892       -2.4723796859
 H         -6.4074499216       -1.0656741370       -1.4960757075
 H         -6.6526140288       -3.2406324309       -0.3424031044
 H         -4.8583858652       -4.1023608010        1.0853221195
 H         -2.7929310673       -2.8207813487        1.4476812904
 H         -2.2563331899       -0.9915771719        2.7960642306
  52
  -79.9957703702000       6.723639843275199E-003 !
 C          0.0291530101       -1.5682731138        2.7704146139
 C          1.2201478292       -1.2737786558        2.1333066854
 C          1.2117257356       -0.5941689742        0.9172985275
 N          2.4141150243       -0.2890748981        0.2712352137
 C          2.7873499276        0.9572284239       -0.1961679560
 C          2.1154905345        2.1683604065       -0.1190951209
 C          2.7389506543        3.2856256379       -0.6415437450
 C          4.0031854398        3.2094087683       -1.2212848603
 C          4.6845558492        2.0103643694       -1.2831973999
 C          4.0783206443        0.8734114966       -0.7655454807
 C          4.4920626292       -0.4968198614       -0.6427072408
 C          5.6303316263       -1.1894809618       -1.0335466726
 C          5.6997623864       -2.5446872331       -0.7792980558
 C          4.6473435989       -3.2115641503       -0.1563108326
 C          3.5047158250       -2.5440030268        0.2417440317
 C          3.4388740368       -1.1781978545        0.0083900971
 C         -0.0001764089       -0.2147908049        0.3489123629
 C         -1.1888389993       -0.5064722236        1.0007616911
 N         -2.4159411590       -0.1168686719        0.4206329024
 C         -3.0912699657        1.0516542136        0.6860572960
 C         -2.7370302364        2.0932703313        1.5302718253
 C         -3.5994785838        3.1688755008        1.6154518449
 C         -4.7835574949        3.2097328793        0.8810711973
 C         -5.1383088970        2.1747877863        0.0388714129
 C         -4.2886134208        1.0810138633       -0.0663690095
 C         -4.3250943453       -0.1424941761       -0.8176330238
 C         -5.2261126722       -0.6948558466       -1.7190210652
 C         -4.9411051211       -1.9296908029       -2.2670222368
 C         -3.7759602683       -2.6166988578       -1.9305805645
 C         -2.8627613521       -2.0904540460       -1.0376079541
 C         -3.1466351534       -0.8506821699       -0.4851928831
 C         -1.1783127074       -1.1841982853        2.2136227293
 H          0.0426034170       -2.0928114853        3.7139167824
 H          2.1630139213       -1.5517943591        2.5791134414
 H          1.1424846520        2.2439641669        0.3426948564
 H          2.2353257240        4.2398771397       -0.5952523373
 H          4.4565527517        4.1054046217       -1.6182537460
 H          5.6707212544        1.9532893836       -1.7185856625
 H          6.4387676200       -0.6752005530       -1.5307505892
 H          6.5759981899       -3.1023586540       -1.0745197715
 H          4.7234574724       -4.2751926977        0.0148081921
 H          2.6866340565       -3.0736305600        0.7065475508
 H         -0.0199309517        0.2935419305       -0.6035023880
 H         -1.8196484507        2.0590971355        2.1001866293
 H         -3.3518878853        3.9961740615        2.2642287891
 H         -5.4312041468        4.0686701432        0.9760547653
 H         -6.0561980266        2.2107839947       -0.5284598437
 H         -6.1300275293       -0.1663610388       -1.9822565643
 H         -5.6301437464       -2.3756816335       -2.9688678100
 H         -3.5839742208       -3.5811233225       -2.3774656598
 H         -1.9595051738       -2.6218625775       -0.7753425424
 H         -2.1123393856       -1.4047686651        2.7075658078
