  32
        -48.96804282
 C          2.8586700619        2.4035648947       -0.1228119665
 C          3.5422485441        1.2213117330       -0.0611366798
 C          2.8435467724       -0.0002772242        0.0003549702
 C          3.5415884571       -1.2220387325        0.0642748538
 C          2.8577277843       -2.4040288911        0.1256369575
 C          1.4633337705       -2.4110117212        0.1016970222
 C          0.7285663632       -1.2401815841        0.0244881616
 C         -0.7287293770       -1.2400722904       -0.0285982945
 C         -1.4637064118       -2.4107846456       -0.1054451850
 C         -2.8581875429       -2.4036847825       -0.1244141744
 C         -3.5418754671       -1.2217909104       -0.0590319168
 C         -2.8435568588       -0.0000165530        0.0027779101
 C         -3.5418911224        1.2215735823        0.0665553021
 C         -2.8582410882        2.4038765320        0.1231927342
 C         -1.4638015431        2.4113688197        0.0977960108
 C         -0.7286248502        1.2404831891        0.0248229238
 C          0.7287898015        1.2404325403       -0.0278880975
 C          1.4641728298        2.4111432219       -0.1012084160
 C          1.4223615304        0.0000368522       -0.0013364948
 C         -1.4223736734        0.0001913206       -0.0001975627
 H          3.3908863447        3.3416284299       -0.1821536452
 H          4.6223410699        1.2036704739       -0.0624178334
 H          4.6218424731       -1.2048261772        0.0681616532
 H          3.3895934593       -3.3423256246        0.1872528419
 H          0.9671647959       -3.3668060614        0.1494618201
 H         -0.9676603222       -3.3664311966       -0.1569688411
 H         -3.3903614520       -3.3422049860       -0.1862122988
 H         -4.6219820689       -1.2046397436       -0.0588966869
 H         -4.6219243860        1.2038042933        0.0733192231
 H         -3.3904586299        3.3420146726        0.1823346736
 H         -0.9680460043        3.3677023059        0.1404013377
 H          0.9683904650        3.3672774007       -0.1486585334
