50
 energy: -69.448432794580 gnorm: 0.000060995579 xtb: 6.7.1 (edcfbbe)
C           -3.41332905209218        2.10596996584255       -1.24382071767763
C           -2.89078494848916        1.37599036865367        0.01371906247384
C           -3.40047697953629        2.10373266967209        1.27773661312905
C           -3.45463955662660       -0.02524910459337        0.01581000209196
C           -4.81261033320034       -0.26638565989841        0.02445214180834
C           -5.33149196210935       -1.55862373755829        0.03129812802836
C           -4.46096234590805       -2.65686301881675        0.03109046508523
C           -3.10864980661876       -2.45477770918924        0.02253194123602
C           -2.58000566901023       -1.14288019048708        0.01347258809763
N           -1.23201397629172       -0.97466129622593        0.00117759082978
C           -0.56419192854720        0.21389674057911       -0.00519111192853
C           -1.38480146749156        1.42717766153740        0.00520636672028
C           -0.72826401696141        2.64944513418307        0.00272249760711
C            0.63883049421613        2.73548653334608       -0.00465616230641
C            1.43777320828114        1.52826328974129       -0.01347405104622
C            0.83903271364717        0.27679694012659       -0.01775770404393
C            1.69992165671443       -0.98672814207096       -0.06976354610175
C            1.34066694978497       -1.93985824924014        1.10381565100897
C            1.49242898016044       -1.66769172862689       -1.44355159531685
C            3.18912564545702       -0.67602278369456        0.01310362918149
C            4.11460633550619       -1.70172799392341        0.04408731150607
C            5.48349230171749       -1.45792791471097        0.08692049383323
C            5.95262893014507       -0.14389611384581        0.09630437368448
C            5.06027690983823        0.89784943197564        0.06334628312335
C            3.67712324404197        0.64807052441284        0.01936918228586
N            2.79383154968165        1.68547730233412       -0.01373319628916
H           -4.49942413576278        2.10954992480987       -1.25798193441255
H           -3.05708937025478        1.60011108128241       -2.13912683048873
H           -3.06568450353143        3.13457308303597       -1.26649181657056
H           -4.48638996564517        2.11270990802964        1.30015271887784
H           -3.04756819944519        3.13052731289845        1.30190607648773
H           -3.04030015651445        1.59280568541337        2.16864687334810
H           -5.50748443032161        0.56070014625332        0.02675587510043
H           -6.39931143729217       -1.71308071512182        0.03786665062265
H           -4.86204826442660       -3.66017753360942        0.03775879076090
H           -2.42290571422580       -3.29138284522849        0.02243479312531
H           -0.67978647263054       -1.81847323267325        0.02258775663878
H           -1.29956466399536        3.56561080105500        0.00677492225339
H            1.14238831104108        3.68931498474119       -0.00701266708752
H            0.63208867169891       -1.47402220551628        1.78542410120707
H            2.23039136403229       -2.17133208034263        1.68490895764786
H            0.93157970499965       -2.88581218107106        0.75127424571607
H            1.88902238410752       -1.02157736540562       -2.22536560013958
H            2.02868447515000       -2.61268829693169       -1.48380886477134
H            0.44581210916737       -1.85235505985366       -1.67033666365569
H            3.77741523510668       -2.72830778518246        0.03536582716988
H            6.17845561245326       -2.28337863095012        0.10965630202166
H            7.01477990314288        0.05108315394712        0.12924251116337
H            5.40442294041111        1.92307546697349        0.07100239932228
H            3.16054239761791        2.62674841199333       -0.00339740427719
