50
 energy: -69.448431477832 gnorm: 0.000053669860 xtb: 6.7.1 (edcfbbe)
C           -3.40912876295366        2.11050179538432       -1.24834871521010
C           -2.88711157641012        1.38286754070152        0.01079396498813
C           -3.39408701726581        2.11544946931305        1.27308101055797
C           -3.45419631771567       -0.01705172673917        0.01659202909931
C           -4.81270213750582       -0.25507662459771        0.02748194890420
C           -5.33452002552458       -1.54610969631940        0.03617750655544
C           -4.46654110788037       -2.64636132472917        0.03509748869990
C           -3.11378805905014       -2.44737101172029        0.02457115987869
C           -2.58215698559491       -1.13670076238553        0.01427423379813
N           -1.23379475554752       -0.97163033179884        0.00115274606645
C           -0.56319178767933        0.21532288553521       -0.00648947215961
C           -1.38102146512418        1.43054230166035        0.00108180923918
C           -0.72160628968156        2.65125046561199       -0.00492039950557
C            0.64568425646056        2.73404750902312       -0.01230788368801
C            1.44184127187713        1.52495771818754       -0.01676666107823
C            0.84017115837775        0.27487340115222       -0.01802526706683
C            1.69823397500637       -0.99077687103485       -0.06569442186283
C            1.33446992608582       -1.94054704471177        1.10916781133004
C            1.49181398314220       -1.67424307146742       -1.43837678445316
C            3.18800340265225       -0.68330640880647        0.01923991723595
C            4.11104808949949       -1.71104653319037        0.05506618791539
C            5.48042083251181       -1.47029842405929        0.09948046988291
C            5.95260451050585       -0.15733952569277        0.10532783989014
C            5.06273308096279        0.88636128507867        0.06746135771943
C            3.67908352549786        0.63966105849351        0.02204341057039
N            2.79827124677061        1.67901749540523       -0.01596970998388
H           -4.49522910004013        2.11788228686589       -1.26057995107180
H           -3.05631148948893        1.60029120004521       -2.14253004462511
H           -3.05784689227384        3.13776803197704       -1.27515302988703
H           -4.47994618998089        2.12589816808722        1.29705750608494
H           -3.03989262645890        3.14188561399931        1.29315534750211
H           -3.03323489367430        1.60718274106486        2.16522227026226
H           -5.50568936499636        0.57358444195558        0.02998403040850
H           -6.40267434108320       -1.69811422321618        0.04457364007964
H           -4.86991632130913       -3.64874163363910        0.04264444383134
H           -2.42997592096243       -3.28556060270407        0.02383012236953
H           -0.68354139956358       -1.81669269359260        0.02341670830814
H           -1.29073835320887        3.56877439588862       -0.00351300849014
H            1.15146859118709        3.68668510721885       -0.01737934584415
H            0.62717138704268       -1.47074054904268        1.78937886563271
H            2.22282274053794       -2.17451341495135        1.69133884879236
H            0.92196302023828       -2.88552738910867        0.75800023034605
H            1.88978306594582       -1.02990371002604       -2.22092860804853
H            2.02747907855508       -2.61967397189803       -1.47614342148509
H            0.44534532996436       -1.85863102597896       -1.66607194238915
H            3.77153164548252       -2.73688032164146        0.04885900458845
H            6.17343199571782       -2.29726871369577        0.12610109475684
H            7.01513775838748        0.03529980923867        0.13941589042102
H            5.40930134316033        1.91078495178539        0.07229687429383
H            3.16719348051922        2.61944084649515       -0.00800829788594
