50
 energy: -69.563251866063 gnorm: 0.000058364278 xtb: 6.7.1 (edcfbbe)
C           -3.39545903227671        2.09447372286054       -1.25011213227443
C           -2.88195527395244        1.37516528810376        0.01164053875799
C           -3.38371994436491        2.10067882659820        1.27465501134064
C           -3.43683485215094       -0.03661857027035        0.01779000291431
C           -4.80441470355046       -0.26926721737469        0.03507586371563
C           -5.32498861599528       -1.55217159608751        0.04324159029371
C           -4.46903939438046       -2.64073373080211        0.03480135229558
C           -3.10535351777662       -2.43583975125446        0.01668061578950
C           -2.58268730690151       -1.14099545242537        0.00701912100716
N           -1.22047398009254       -0.97753371209036       -0.01854177561247
C           -0.57617362440896        0.24081053353436       -0.01009125998332
C           -1.35936630774926        1.40365997354802        0.00404383401099
C           -0.71334065377357        2.63038402228214        0.00587662895072
C            0.65976300364271        2.71626320322766       -0.00480126698951
C            1.43271812395151        1.55739665533327       -0.02151101400827
C            0.83194527756057        0.29785947226936       -0.02140620572986
C            1.68671033761702       -0.96834971058607       -0.06859231364692
C            1.32983768702087       -1.90984908157730        1.11486765856406
C            1.47971673303774       -1.65105761921165       -1.44107732200316
C            3.17814619907376       -0.66745150592330        0.01235423879541
C            4.09252656027670       -1.71130561578125        0.05576685910945
C            5.45679977618505       -1.48248187561362        0.10314663828814
C            5.93602161501156       -0.18278382917935        0.10790811981865
C            5.04859750224391        0.87186875148734        0.06381695929975
C            3.67363170255661        0.63729033588666        0.01183881843213
N            2.80269987811866        1.69413387444313       -0.04171126896801
H           -4.48191960722932        2.10120748028540       -1.27459555949602
H           -3.03451571715040        1.58314205032834       -2.14103238503695
H           -3.04714496858015        3.12313554795074       -1.28037854944312
H           -4.46981951760571        2.11079951535180        1.30802967608013
H           -3.03325365850325        3.12868015160014        1.29851503205216
H           -3.01717620218815        1.59205048869137        2.16489131829352
H           -5.48940247090184        0.56551715142082        0.04243887843650
H           -6.39464219326366       -1.70026703018290        0.05671832767480
H           -4.86345963642913       -3.64652590799256        0.04213435667759
H           -2.42622358233193       -3.27762156885868        0.00987815122804
H           -0.66605050529845       -1.81465515620185        0.00885134241950
H           -1.28624158887447        3.54444666473901        0.01538055200741
H            1.14882741876926        3.67972174960229       -0.00276915954647
H            0.57425239594968       -1.46588794439949        1.75942249190233
H            2.20785422486701       -2.08159016355727        1.73380447382829
H            0.98043600901100       -2.88220354966555        0.77064652758187
H            1.90538357047006       -1.01939284675081       -2.21956204263568
H            1.98848929876318       -2.61149175908551       -1.47104339645796
H            0.43101727461213       -1.80367971502962       -1.68128409440323
H            3.73735567765906       -2.73127355186393        0.05422536260816
H            6.14273058433182       -2.31588446534526        0.13483954851069
H            6.99869774865171        0.00770928300065        0.14564265694195
H            5.40698517339268        1.89204134118648        0.06746731961079
H            3.18068744181946        2.62866306714260       -0.01876872344822
