  57
        -83.53603497
 C          6.3034817763        0.9259027935        0.9429341867
 N          5.2832836877        1.6142076398        0.1938034141
 C          5.6541778877        2.8293179517       -0.4859743270
 C          3.9980450066        1.1411483392        0.1470260714
 C          3.0741669713        1.6351269673       -0.7920419684
 C          1.7840859289        1.1648562359       -0.8420170563
 C          1.3504937142        0.1709789214        0.0439545963
 N          0.0523129276       -0.3106480697        0.0122678503
 C         -0.3234153137       -1.6823201868       -0.0205858507
 C          0.5272852970       -2.8017583638       -0.1506609680
 C          1.8542554801       -2.7553593903       -0.6456855438
 C          2.6105281486       -3.9006173224       -0.7171413586
 C          2.0908529205       -5.1295028856       -0.3237202514
 C          0.7670407606       -5.2027875978        0.1131684823
 C         -0.0040046664       -4.0733125774        0.1899296803
 N         -1.6498075730       -1.7923153807        0.0093920418
 C         -2.1719703738       -0.5718061054       -0.0255271400
 C         -3.5940444600       -0.3899612135        0.1242958585
 C         -4.1508144816        0.7384230730        0.7416529845
 C         -5.5190429346        0.8491916477        0.8818910510
 C         -6.3589579393       -0.1529935202        0.4197194164
 C         -5.8161153833       -1.2882554930       -0.1685209448
 C         -4.4510174096       -1.4115608552       -0.3076362906
 C         -1.1213804568        0.4195969519       -0.0834045952
 C         -1.2382232590        1.8312215959       -0.1497030311
 C         -2.2958466121        2.4137953520       -0.8918424268
 C         -2.4399104197        3.7774743158       -0.9647107648
 C         -1.5500864187        4.6215838319       -0.3059048447
 C         -0.5085572497        4.0680075592        0.4344054686
 C         -0.3432853107        2.7067816623        0.5109770839
 C          2.2640702219       -0.3293977312        0.9823352765
 C          3.5529797536        0.1433077620        1.0320554877
 H          6.2039134606       -0.1537680217        0.8195530572
 H          6.2567393376        1.1629990196        2.0126568384
 H          7.2833143150        1.2177822129        0.5684129152
 H          5.8361692870        2.6606593595       -1.5538451832
 H          6.5647475208        3.2271000071       -0.0411888543
 H          4.8706651905        3.5816520931       -0.3798071989
 H          3.3767358252        2.3781956477       -1.5114760089
 H          1.1006317991        1.5484965154       -1.5837128062
 H          2.2570851039       -1.8296273845       -1.0221617312
 H          3.6199241589       -3.8461429677       -1.1004093428
 H          2.6972250046       -6.0204658025       -0.3779476505
 H          0.3509753041       -6.1591661663        0.3956827486
 H         -1.0247607729       -4.1125025817        0.5347225361
 H         -3.5054486910        1.5067456729        1.1365849797
 H         -5.9363870349        1.7220742129        1.3629702626
 H         -7.4290983090       -0.0561489867        0.5273777752
 H         -6.4667993281       -2.0761442252       -0.5190992247
 H         -4.0134553574       -2.2863437209       -0.7627368802
 H         -2.9717336768        1.7677181976       -1.4307799768
 H         -3.2461709285        4.1992441662       -1.5479549358
 H         -1.6655916797        5.6927269901       -0.3684192144
 H          0.1754769430        4.7179265201        0.9621907479
 H          0.4474189939        2.2977164537        1.1205796890
 H          1.9392203914       -1.0852188936        1.6811892764
 H          4.2147202006       -0.2497808790        1.7861777093
  57
        -83.53590681
 C          6.2498736031        1.0423942555        1.0883937493
 N          5.2925939326        1.6068570375        0.1711817110
 C          5.6940279759        2.7102870570       -0.6648290996
 C          4.0051677343        1.1377128350        0.1329580713
 C          3.0735408160        1.6352155355       -0.7969333711
 C          1.7824340797        1.1660389487       -0.8398505671
 C          1.3525012963        0.1707546271        0.0452350104
 N          0.0529040178       -0.3098069393        0.0199288111
 C         -0.3228739894       -1.6798037627       -0.0141574252
 C          0.5285314165       -2.8004425895       -0.1450102282
 C          1.8459088403       -2.7552029066       -0.6625449671
 C          2.6015649632       -3.9007280479       -0.7416978426
 C          2.0905283742       -5.1268380655       -0.3297079016
 C          0.7764308826       -5.1979253476        0.1347652967
 C          0.0053356099       -4.0683740044        0.2165996968
 N         -1.6481336129       -1.7915509173        0.0155746728
 C         -2.1722624438       -0.5713643126       -0.0166220758
 C         -3.5946236631       -0.3921740746        0.1231949589
 C         -4.1604545303        0.7361318941        0.7337375785
 C         -5.5304471941        0.8477150328        0.8526208235
 C         -6.3640973701       -0.1537588002        0.3771090967
 C         -5.8128116439       -1.2906375447       -0.2006279230
 C         -4.4460733651       -1.4147953978       -0.3188714949
 C         -1.1210461833        0.4216622330       -0.0709480988
 C         -1.2375121574        1.8324219560       -0.1300632268
 C         -2.2987914793        2.4203901816       -0.8643574552
 C         -2.4441467370        3.7842236199       -0.9261882792
 C         -1.5522435495        4.6244011187       -0.2648596978
 C         -0.5059974479        4.0660235548        0.4658699951
 C         -0.3391331866        2.7048140238        0.5316821759
 C          2.2719720017       -0.3326109343        0.9750554238
 C          3.5624070691        0.1375809935        1.0171600929
 H          5.9817847716        1.2527355419        2.1296426529
 H          7.2320278157        1.4679436984        0.8973062054
 H          6.3199501164       -0.0411474030        0.9591871279
 H          5.0398823997        3.5744772391       -0.5166958333
 H          5.6731607536        2.4353055480       -1.7247387470
 H          6.7084220733        3.0081789747       -0.4122904958
 H          3.3627612341        2.3900007368       -1.5084454275
 H          1.0941624214        1.5570641886       -1.5729755733
 H          2.2411089511       -1.8306451967       -1.0500525468
 H          3.6030347995       -3.8483651727       -1.1453960238
 H          2.6963126832       -6.0178444377       -0.3903227346
 H          0.3672095140       -6.1519373163        0.4339124157
 H         -1.0083681478       -4.1058731172        0.5819724268
 H         -3.5205642214        1.5031361900        1.1398976459
 H         -5.9548628056        1.7209299494        1.3268505277
 H         -7.4357625298       -0.0551366591        0.4662296443
 H         -6.4585742156       -2.0785523346       -0.5601859452
 H         -4.0020467020       -2.2904518623       -0.7660013518
 H         -2.9754512817        1.7779614998       -1.4064692100
 H         -3.2530161256        4.2096675056       -1.5032051248
 H         -1.6689293795        5.6958521398       -0.3188726600
 H          0.1804637470        4.7128201600        0.9942416301
 H          0.4548606945        2.2920834248        1.1344331108
 H          1.9531164016       -1.0929004419        1.6717834191
 H          4.2283631054       -0.2715991887        1.7581066249
  57
        -83.53539464
 C          6.0463531954        1.2222663057        1.6368729379
 N          5.2888844704        1.5597792240        0.4568938613
 C          5.8453341630        2.5215729032       -0.4601847552
 C          4.0081273305        1.0968783036        0.2990380312
 C          3.1520011502        1.6173871437       -0.6880246672
 C          1.8626790367        1.1607141733       -0.8324437397
 C          1.3606780240        0.1602150168        0.0072607876
 N          0.0577888719       -0.3012344420       -0.0972244525
 C         -0.3200132290       -1.6725164963       -0.1025340487
 C          0.5321403502       -2.7849128617       -0.2807436127
 C          1.8383803019       -2.7152835678       -0.8239996362
 C          2.5983845653       -3.8528070723       -0.9547116506
 C          2.1029815345       -5.0942188901       -0.5691057936
 C          0.8010332115       -5.1874560949       -0.0756293801
 C          0.0254631678       -4.0658243314        0.0579192109
 N         -1.6423286084       -1.7865393373       -0.0103469794
 C         -2.1659870698       -0.5660973605       -0.0322105980
 C         -3.5690772950       -0.3741994264        0.2290298349
 C         -4.0661135958        0.7792213301        0.8531195541
 C         -5.4133358494        0.8958526754        1.1259999871
 C         -6.2919933613       -0.1235534808        0.7903951740
 C         -5.8072787103       -1.2799871170        0.1919960892
 C         -4.4628735650       -1.4098241613       -0.0786019526
 C         -1.1199321481        0.4271132102       -0.1606101285
 C         -1.2623254826        1.8291953217       -0.3050881346
 C         -2.3624450194        2.3408907555       -1.0404905445
 C         -2.5372268939        3.6925568285       -1.2025044429
 C         -1.6395995917        4.5968773753       -0.6402934250
 C         -0.5619495612        4.1151689322        0.0984150101
 C         -0.3660255349        2.7658030356        0.2643954090
 C          2.2133092884       -0.3818502853        0.9784709008
 C          3.5016700569        0.0723280177        1.1189181556
 H          6.4215114904        0.1940709991        1.5911125762
 H          5.4352866429        1.3300551789        2.5367345796
 H          6.8981592843        1.8926243324        1.7265292772
 H          5.3985156659        3.5150480041       -0.3341294794
 H          5.6922974284        2.1985950845       -1.4918010354
 H          6.9168324906        2.6025531350       -0.2910751273
 H          3.4913795604        2.3983545412       -1.3480533976
 H          1.2290345314        1.5767350520       -1.6005285117
 H          2.2217849646       -1.7756273190       -1.1870155914
 H          3.5910850010       -3.7818675352       -1.3766441525
 H          2.7120405045       -5.9792905100       -0.6706811297
 H          0.4044427932       -6.1527538724        0.2042301684
 H         -0.9795400134       -4.1202834653        0.4445394318
 H         -3.3872379284        1.5616041738        1.1525534289
 H         -5.7830027614        1.7868149421        1.6129728152
 H         -7.3458755880       -0.0229706964        1.0034010621
 H         -6.4876979631       -2.0800799208       -0.0609071649
 H         -4.0701531911       -2.3024156410       -0.5398833467
 H         -3.0458176574        1.6465805121       -1.5047885046
 H         -3.3739324272        4.0579130672       -1.7809600527
 H         -1.7783844832        5.6586534269       -0.7742753857
 H          0.1271725578        4.8128863831        0.5535603152
 H          0.4527805301        2.4154821517        0.8729648257
 H          1.8427579599       -1.1604408271        1.6280213359
 H          4.1232096180       -0.3791561350        1.8740177291
  57
        -83.53492032
 C          6.0070793378        1.2390559853        1.7489480736
 N          5.2685333012        1.5996394109        0.5636718878
 C          5.8088122393        2.6228959951       -0.2946921871
 C          4.0015280387        1.1140260158        0.3654688103
 C          3.1608327964        1.6307945449       -0.6364065409
 C          1.8811699197        1.1583775396       -0.8138307063
 C          1.3715243067        0.1476913534        0.0090068542
 N          0.0696329529       -0.3122716402       -0.1109354866
 C         -0.3134830895       -1.6829556942       -0.1001564363
 C          0.5272670326       -2.7979496166       -0.3107585486
 C          1.8263876574       -2.7271314657       -0.8704245379
 C          2.5652341274       -3.8704784354       -1.0587723997
 C          2.0565133548       -5.1183917214       -0.7129444404
 C          0.7649854999       -5.2100602785       -0.1928736152
 C          0.0102330579       -4.0825151404       -0.0021449309
 N         -1.6340567388       -1.7924066226        0.0190379097
 C         -2.1544345292       -0.5704902783       -0.0079289179
 C         -3.5489302198       -0.3671384515        0.2854976655
 C         -4.0303308400        0.8138434570        0.8695502824
 C         -5.3690830991        0.9421465419        1.1761009607
 C         -6.2548757618       -0.0930302735        0.9162031936
 C         -5.7852159608       -1.2762688012        0.3594093146
 C         -4.4496410438       -1.4169245770        0.0538607831
 C         -1.1080256081        0.4174349037       -0.1705631609
 C         -1.2553286986        1.8141885604       -0.3624269017
 C         -2.3536787841        2.2904667343       -1.1231671451
 C         -2.5309752982        3.6332306821       -1.3451638502
 C         -1.6383792450        4.5632014651       -0.8178364134
 C         -0.5664385327        4.1172268707       -0.0497265690
 C         -0.3684598676        2.7764970568        0.1765279525
 C          2.2138666902       -0.3994600170        0.9862189334
 C          3.4932764672        0.0687198917        1.1580010514
 H          5.3907250728        1.3506515938        2.6454941074
 H          6.8718643288        1.8902217356        1.8514375928
 H          6.3617863679        0.2044373055        1.6966815743
 H          6.8706285546        2.7416333464       -0.0908048536
 H          5.3160613716        3.5903589222       -0.1398906852
 H          5.6992032678        2.3396607836       -1.3433420998
 H          3.5033073550        2.4216567946       -1.2827848807
 H          1.2604636336        1.5723788471       -1.5932841518
 H          2.2205216395       -1.7794551511       -1.1997771003
 H          3.5514278465       -3.7988476671       -1.4955930150
 H          2.6481013053       -6.0084259224       -0.8630594042
 H          0.3591229578       -6.1789201904        0.0602087624
 H         -0.9881033404       -4.1363983802        0.4013854310
 H         -3.3453467690        1.6100201225        1.1129918309
 H         -5.7258336679        1.8545275559        1.6321096789
 H         -7.3019418655        0.0162171310        1.1566329861
 H         -6.4709042751       -2.0883219380        0.1659021852
 H         -4.0689316494       -2.3287450122       -0.3789123379
 H         -3.0323882894        1.5742551030       -1.5603933729
 H         -3.3643840755        3.9706178290       -1.9448962541
 H         -1.7780845922        5.6176750569       -0.9999816062
 H          0.1162898077        4.8361257718        0.3813940526
 H          0.4444076047        2.4550527102        0.8085115566
 H          1.8406333919       -1.1905477214        1.6190062123
 H          4.1040338136       -0.3837252843        1.9211257591
  57
        -83.53281542
 C          5.9197205643        2.1482169804        1.2191540988
 N          5.2969395271        1.5735212346        0.0526550361
 C          6.0674189698        1.5033277931       -1.1642392887
 C          4.0054721002        1.1246666114        0.0940189221
 C          3.3079795647        0.7975664272       -1.0794075530
 C          2.0098911796        0.3373815326       -1.0334110448
 C          1.3555521950        0.1833969328        0.1827850935
 N          0.0374707237       -0.3160891957        0.2291515855
 C         -0.3220449029       -1.6353318470       -0.0889723141
 C          0.5356931264       -2.7653617482       -0.1989877013
 C          1.8888180311       -2.7971947718        0.1955511825
 C          2.6279589433       -3.9499371008        0.0559048992
 C          2.0624407980       -5.1031162534       -0.4753373567
 C          0.7237768617       -5.0932462039       -0.8571764179
 C         -0.0278621148       -3.9526641773       -0.7214503468
 N         -1.6375243547       -1.7474788916       -0.2352431213
 C         -2.1833614809       -0.5508381659       -0.0487700407
 C         -3.5955436117       -0.4068344466        0.1183594143
 C         -4.1613362009        0.6430851503        0.8673370177
 C         -5.5278056221        0.7270750324        1.0221455196
 C         -6.3643427685       -0.2218211656        0.4499786585
 C         -5.8158187550       -1.2812967254       -0.2671161870
 C         -4.4536629342       -1.3807427944       -0.4246212081
 C         -1.1265705533        0.4514463222        0.1274121290
 C         -1.2283064149        1.8399566551        0.0130111421
 C         -2.3608741361        2.4129124376       -0.6526481527
 C         -2.5126659617        3.7690408536       -0.7556795329
 C         -1.5655317200        4.6408041669       -0.2179833314
 C         -0.4367218314        4.1081684508        0.4096870671
 C         -0.2577115935        2.7558650567        0.5190883291
 C          2.0323055853        0.5047427786        1.3568077643
 C          3.3288367365        0.9679532505        1.3156945865
 H          6.2281600747        1.3801384427        1.9380769505
 H          5.2376420263        2.8402420592        1.7179593698
 H          6.8017529581        2.7086397086        0.9170424570
 H          5.7984971971        2.3010165074       -1.8670746253
 H          5.9184510538        0.5393544038       -1.6550992500
 H          7.1254312638        1.5965828501       -0.9265570928
 H          3.7740411958        0.9192186929       -2.0428795190
 H          1.4904598008        0.0922250486       -1.9482947436
 H          2.3504944991       -1.9245878119        0.6257315776
 H          3.6627176121       -3.9568287974        0.3677781147
 H          2.6542107133       -5.9991695128       -0.5847837282
 H          0.2749280745       -5.9883620482       -1.2626046559
 H         -1.0666460423       -3.9311230455       -1.0085464814
 H         -3.5174451235        1.3626638332        1.3477706815
 H         -5.9503600116        1.5354769074        1.6015768626
 H         -7.4344191157       -0.1455544648        0.5716378508
 H         -6.4650946959       -2.0271349811       -0.7022191610
 H         -4.0123444836       -2.1938938497       -0.9788404368
 H         -3.0702232437        1.7566742862       -1.1296486470
 H         -3.3717497805        4.1704375088       -1.2748930633
 H         -1.6943024253        5.7087727660       -0.2983235683
 H          0.3058363677        4.7771019481        0.8221946474
 H          0.6096415343        2.3779270385        1.0321182294
 H          1.5343439799        0.3749953979        2.3076094437
 H          3.8247321360        1.1897118636        2.2463214056
  57
        -83.53263111
 C          6.2241857975        1.2869377140       -0.7934910780
 N          5.3259664267        1.5268430026        0.3093622341
 C          5.8606942323        2.0774549939        1.5294045167
 C          4.0295537961        1.0890814465        0.2514212842
 C          3.4808612618        0.5927105907       -0.9423354858
 C          2.1732393347        0.1635517455       -1.0055036034
 C          1.3561119222        0.2102474549        0.1196814742
 N          0.0351710830       -0.2661386260        0.0673292885
 C         -0.3269626522       -1.5975874812       -0.1579914527
 C          0.5434010605       -2.7260029420       -0.2524162176
 C          1.8679475104       -2.7608914412        0.2214766030
 C          2.6256911658       -3.9030805041        0.0835243946
 C          2.1005777383       -5.0396286475       -0.5175867985
 C          0.7831679103       -5.0298844469       -0.9646025154
 C          0.0148329382       -3.8985385366       -0.8324743827
 N         -1.6430366092       -1.7333832760       -0.2289330823
 C         -2.1951503350       -0.5353484173       -0.0398310523
 C         -3.5873263511       -0.4031906916        0.2358067922
 C         -4.1075990137        0.6817525015        0.9723581674
 C         -5.4569996568        0.7588554705        1.2350476364
 C         -6.3233832695       -0.2300572654        0.7868476652
 C         -5.8187701874       -1.3229536824        0.0862577224
 C         -4.4737852251       -1.4167533295       -0.1785916411
 C         -1.1409473101        0.4878389626        0.0214768341
 C         -1.2720319245        1.8581472988       -0.2164848332
 C         -2.4766915662        2.3576867651       -0.8137825162
 C         -2.6601114133        3.6952421019       -1.0364237095
 C         -1.6758023996        4.6227704362       -0.6950210423
 C         -0.4761616673        4.1604199316       -0.1492771763
 C         -0.2656275003        2.8273412610        0.0784260037
 C          1.8867778673        0.6945717638        1.3138026589
 C          3.1931299765        1.1261079665        1.3799945463
 H          6.2215721709        0.2316521068       -1.0838532730
 H          7.2369986392        1.5540884060       -0.5019787032
 H          5.9504851174        1.8895358712       -1.6658547426
 H          6.8451278955        2.4967897494        1.3358091462
 H          5.9576417729        1.3184732219        2.3148025471
 H          5.2215499297        2.8827902243        1.8989112579
 H          4.0753831007        0.5483727728       -1.8390920638
 H          1.7738437860       -0.2175916735       -1.9336467647
 H          2.2902875285       -1.9052789067        0.7211878217
 H          3.6405433559       -3.9138117107        0.4548668894
 H          2.7065398121       -5.9262660279       -0.6269080278
 H          0.3642692167       -5.9150661163       -1.4207383959
 H         -1.0071182704       -3.8748026339       -1.1755009753
 H         -3.4372360302        1.4340218207        1.3569329403
 H         -5.8435051155        1.5932662698        1.8027682901
 H         -7.3808075599       -0.1587772066        0.9924630964
 H         -6.4907289387       -2.0989168389       -0.2508346122
 H         -4.0667109072       -2.2549753085       -0.7215463724
 H         -3.2199730813        1.6549573959       -1.1515796296
 H         -3.5754589402        4.0359619889       -1.4999086987
 H         -1.8300412451        5.6764978812       -0.8667242742
 H          0.2995091388        4.8700323345        0.1035646730
 H          0.6632768599        2.5110571444        0.5193331977
 H          1.2646555608        0.7197440368        2.1975209105
 H          3.5648274448        1.4806179584        2.3266359355
