  57
        -83.53603497
 C          6.3034817763        0.9259027935        0.9429341867
 N          5.2832836877        1.6142076398        0.1938034141
 C          5.6541778877        2.8293179517       -0.4859743270
 C          3.9980450066        1.1411483392        0.1470260714
 C          3.0741669713        1.6351269673       -0.7920419684
 C          1.7840859289        1.1648562359       -0.8420170563
 C          1.3504937142        0.1709789214        0.0439545963
 N          0.0523129276       -0.3106480697        0.0122678503
 C         -0.3234153137       -1.6823201868       -0.0205858507
 C          0.5272852970       -2.8017583638       -0.1506609680
 C          1.8542554801       -2.7553593903       -0.6456855438
 C          2.6105281486       -3.9006173224       -0.7171413586
 C          2.0908529205       -5.1295028856       -0.3237202514
 C          0.7670407606       -5.2027875978        0.1131684823
 C         -0.0040046664       -4.0733125774        0.1899296803
 N         -1.6498075730       -1.7923153807        0.0093920418
 C         -2.1719703738       -0.5718061054       -0.0255271400
 C         -3.5940444600       -0.3899612135        0.1242958585
 C         -4.1508144816        0.7384230730        0.7416529845
 C         -5.5190429346        0.8491916477        0.8818910510
 C         -6.3589579393       -0.1529935202        0.4197194164
 C         -5.8161153833       -1.2882554930       -0.1685209448
 C         -4.4510174096       -1.4115608552       -0.3076362906
 C         -1.1213804568        0.4195969519       -0.0834045952
 C         -1.2382232590        1.8312215959       -0.1497030311
 C         -2.2958466121        2.4137953520       -0.8918424268
 C         -2.4399104197        3.7774743158       -0.9647107648
 C         -1.5500864187        4.6215838319       -0.3059048447
 C         -0.5085572497        4.0680075592        0.4344054686
 C         -0.3432853107        2.7067816623        0.5109770839
 C          2.2640702219       -0.3293977312        0.9823352765
 C          3.5529797536        0.1433077620        1.0320554877
 H          6.2039134606       -0.1537680217        0.8195530572
 H          6.2567393376        1.1629990196        2.0126568384
 H          7.2833143150        1.2177822129        0.5684129152
 H          5.8361692870        2.6606593595       -1.5538451832
 H          6.5647475208        3.2271000071       -0.0411888543
 H          4.8706651905        3.5816520931       -0.3798071989
 H          3.3767358252        2.3781956477       -1.5114760089
 H          1.1006317991        1.5484965154       -1.5837128062
 H          2.2570851039       -1.8296273845       -1.0221617312
 H          3.6199241589       -3.8461429677       -1.1004093428
 H          2.6972250046       -6.0204658025       -0.3779476505
 H          0.3509753041       -6.1591661663        0.3956827486
 H         -1.0247607729       -4.1125025817        0.5347225361
 H         -3.5054486910        1.5067456729        1.1365849797
 H         -5.9363870349        1.7220742129        1.3629702626
 H         -7.4290983090       -0.0561489867        0.5273777752
 H         -6.4667993281       -2.0761442252       -0.5190992247
 H         -4.0134553574       -2.2863437209       -0.7627368802
 H         -2.9717336768        1.7677181976       -1.4307799768
 H         -3.2461709285        4.1992441662       -1.5479549358
 H         -1.6655916797        5.6927269901       -0.3684192144
 H          0.1754769430        4.7179265201        0.9621907479
 H          0.4474189939        2.2977164537        1.1205796890
 H          1.9392203914       -1.0852188936        1.6811892764
 H          4.2147202006       -0.2497808790        1.7861777093
