75
 energy: -110.073088557839 gnorm: 0.000050104831 xtb: 6.7.1 (edcfbbe)
C           -5.65083820985738       -2.70705731161151       -0.37367755389430
C           -4.41548816976299       -2.85535708959925        0.50621181701803
C           -3.58281584288977       -4.07114763982863        0.10733005778283
C           -2.35911077722274       -4.27408062629993        1.01255110026817
C           -1.35685513873248       -3.16974564113923        0.84564079796740
C           -0.48179515487911       -3.17370432390455       -0.23514066748892
C            0.42713062689598       -2.15119847937244       -0.42149243605198
C            0.47890378365886       -1.09916209865564        0.48596811169230
N            1.39949918659672       -0.04770939781566        0.30860516328445
C            1.11988112342085        1.29355324402530        0.33905848450717
C           -0.21153982251061        1.84405969473288        0.57124478046743
C           -0.36726751242962        2.76402734931723        1.60549825629549
C           -1.61060795132800        3.25877088328247        1.93744815309145
C           -2.75074529237949        2.84352890252651        1.24523054716560
C           -4.05600180108611        3.29881909724813        1.59395314918816
C           -5.14803765734555        2.89857947016263        0.90206450582054
C           -5.03321531228288        2.01525516364034       -0.21194756038915
C           -6.14424190318250        1.60228633030381       -0.95005388264213
C           -5.99808602193761        0.75708277355701       -2.03500294961583
C           -4.74612266536984        0.30517507456638       -2.41025483530629
C           -3.60796748522417        0.68672702915604       -1.69772834900324
C           -2.29875919520503        0.26673375936964       -2.07205663417993
C           -1.20901040911494        0.64084508171061       -1.36242251345129
C           -1.32186013819698        1.46402092233168       -0.20311644133996
C           -2.60486108941282        1.95003744025120        0.15453582373527
C           -3.74673454995659        1.54928402179786       -0.58252703535557
N            2.20162376098234        2.00853475501979        0.16620971831532
C            3.23574357733053        1.13059762607280        0.00679244092463
C            4.59551297232261        1.61744527192400       -0.17480222122404
C            5.70583789391464        0.87585840107604        0.22609087486239
C            6.98189294876930        1.37301192989412        0.03724559015611
C            7.17074497523526        2.61715535202944       -0.54281112289964
C            6.07169912797231        3.37025374183570       -0.92436271961289
C            4.79449668802114        2.87683077947569       -0.74052691224927
C            2.75509634613401       -0.16558224216553        0.08701128190006
C            3.42987044961842       -1.45333455887661       -0.02218720894140
C            3.22762970128411       -2.45085426933502        0.93034457041195
C            3.86639590962337       -3.67122322657358        0.80938426719234
C            4.71482601763165       -3.91202267857016       -0.25861413557553
C            4.92564517165710       -2.92344127079789       -1.20707886465224
C            4.28754307173070       -1.70291301259634       -1.09334604297074
C           -0.38591545650904       -1.08427382622241        1.57298825385729
C           -1.29511823034606       -2.11113322931922        1.74330353872279
H           -6.28666262632403       -3.58684108830891       -0.29342667620215
H           -5.36275643409121       -2.58447650378242       -1.41519192822668
H           -6.22834001352058       -1.83499098091052       -0.07607298056745
H           -3.80496762806565       -1.95309214707277        0.42726109176420
H           -4.72653406960656       -2.95728723706740        1.54886118645051
H           -4.20869850257933       -4.96521575234007        0.16048962077469
H           -3.25008994933319       -3.95564980311374       -0.92649393360050
H           -1.89051396142721       -5.22724762492419        0.75730784329894
H           -2.68881756672393       -4.32222043557191        2.05196488297862
H           -0.51171626216561       -3.98922879247480       -0.94284524449773
H            1.09768257441335       -2.16405201658222       -1.26810190777244
H            0.50976921427772        3.07007558723162        2.15732117747792
H           -1.71176194875837        3.96285334085573        2.75075856306910
H           -4.14949504217467        3.97647563619478        2.43084176132066
H           -6.13371315362752        3.24756634754618        1.17612906287203
H           -7.12565356019683        1.95401642557057       -0.66509672279002
H           -6.86900716669951        0.44976700925860       -2.59602842859900
H           -4.63798969370330       -0.34703865876306       -3.26512285007497
H           -2.19299428621308       -0.35393539551457       -2.95067725514198
H           -0.22381160463852        0.34267890786449       -1.68910620581671
H            5.56755151246222       -0.08678666987202        0.69607949328540
H            7.83464907032739        0.78726803611724        0.35020632574382
H            8.17002595682658        3.00078588145637       -0.68982863366470
H            6.21200043613740        4.34568187243104       -1.36818305228864
H            3.92930932478147        3.45454564551758       -1.02924712159127
H            2.57615865125670       -2.26427712693499        1.77232043637546
H            3.70246458408384       -4.43573840757690        1.55492133882594
H            5.21212411902163       -4.86621270701677       -0.35128879212097
H            5.58790745140072       -3.10519090346561       -2.04099783227643
H            4.44677116183111       -0.93085412128662       -1.83270205206539
H           -0.33992544756502       -0.27124497460380        2.28273315455676
H           -1.96135346016734       -2.08979405115014        2.59310085856183
