75
 energy: -110.002270314664 gnorm: 0.000026080575 xtb: 6.7.1 (edcfbbe)
C           -6.41041754033906       -3.97091069898010       -0.30462360626871
C           -5.18598885071398       -4.34231219414077        0.52422389079058
C           -4.01976566667272       -3.39224959383461        0.26246515061227
C           -2.78287182150362       -3.75179795570495        1.09581260565899
C           -1.67141518290619       -2.77810417865705        0.83663595289956
C           -0.76169419816050       -2.99311008264310       -0.19232923750640
C            0.24177460815340       -2.08264741631313       -0.45939710874367
C            0.35452341006076       -0.93124487547971        0.31240784416266
N            1.38882946439701       -0.00671149470550        0.07080937605488
C            1.28187517165812        1.37839684516808        0.02789647641321
C            0.08988698760303        2.14240912666352        0.08135839250944
C            0.15661012239865        3.39950432028458        0.72891224976333
C           -0.96813660769264        4.07666865023168        1.07900724142426
C           -2.26968659728239        3.56391106985248        0.75809088469067
C           -3.43865800154737        4.19957172773645        1.17061655079300
C           -4.68453002866123        3.71534749104352        0.80400904737185
C           -4.80336652848879        2.60243690426203       -0.04082770697137
C           -6.06162034223586        2.11227782985289       -0.47197950085953
C           -6.14231200638122        1.03146382508459       -1.33135716136860
C           -5.00237709080239        0.41255879102751       -1.79990231355090
C           -3.71690485923042        0.85978047156292       -1.39297431760867
C           -2.53575283294875        0.28908614418126       -1.87801444936289
C           -1.29711929135675        0.71401339541792       -1.42194834034050
C           -1.18491142984686        1.70997021921204       -0.45341904169930
C           -2.35701782897628        2.39939217996061       -0.05045314734662
C           -3.62413325521460        1.95083569264505       -0.49001075731963
N            2.49144829415191        1.92978292924973       -0.03469632783659
C            3.38955370573974        0.92830021985523       -0.06576663898528
C            4.81608442345104        1.20594382558549       -0.12968763406320
C            5.76250641839532        0.35512761117365        0.44108410377247
C            7.10835574040646        0.66128397080723        0.36618877455688
C            7.52996003658162        1.81708225331854       -0.27182726587291
C            6.59447461520851        2.67774108904324       -0.82491050549650
C            5.24812963228951        2.37808379570859       -0.75217364308168
C            2.72675635552256       -0.30490123592105        0.00517408943987
C            3.26444254272895       -1.65514660509099        0.02190658667543
C            2.88078821946748       -2.57513960301866        0.99923357052579
C            3.41133142820504       -3.85134190139247        1.00077833288975
C            4.32525453639975       -4.23058965904379        0.03059900699320
C            4.71512861505281       -3.32157491899666       -0.94111227175788
C            4.19298759093985       -2.04277219241626       -0.94692832237874
C           -0.55008699916345       -0.70267671481278        1.34318603546218
C           -1.55360867207154       -1.61812832669713        1.59320929714712
H           -7.23083319394970       -4.65667589424611       -0.10420568230619
H           -6.17950136085935       -4.01316749988294       -1.36719603443711
H           -6.73934062177656       -2.96119100487436       -0.06677701558816
H           -5.44498003775883       -4.31305555957081        1.58532124977884
H           -4.88214647272133       -5.36450332266897        0.28548967360887
H           -3.75720033736772       -3.42343400581665       -0.79718087692439
H           -4.32398371531406       -2.36971732080664        0.49760281237145
H           -2.46013484209745       -4.76280975600342        0.83911759242742
H           -3.05017406670996       -3.73552691369220        2.15425405267638
H           -0.83903158998837       -3.88552014616195       -0.79586422854464
H            0.93590966010581       -2.25785244050940       -1.26809787227908
H            1.13542847759395        3.76023800580305        1.00832871252854
H           -0.90453819723368        5.00441436691012        1.62799315951217
H           -3.36618317058056        5.08599107808947        1.78498461560187
H           -5.58011446368365        4.21031389065520        1.15123434121234
H           -6.95830753385201        2.60368995745820       -0.12416684938113
H           -7.11260474924513        0.67459306020549       -1.64813197075951
H           -5.06992322003921       -0.41886804561773       -2.48556475738112
H           -2.59236419831442       -0.49962876735676       -2.61391659772676
H           -0.40450007427005        0.27485044185783       -1.84141156566274
H            5.44209911003753       -0.53693977045021        0.95811229003942
H            7.83255934110582       -0.00456989624090        0.81301143499965
H            8.58310400997300        2.04996248674116       -0.33056063622689
H            6.91719570393666        3.58519900022925       -1.31457424013214
H            4.50745871621329        3.03994821284814       -1.17486795688852
H            2.18075167405222       -2.28086068431245        1.76767821511654
H            3.11040864843811       -4.55193754215657        1.76574049988765
H            4.73498590014187       -5.22959741973486        0.03319124848126
H            5.42763634824234       -3.61071851500303       -1.69958845879235
H            4.49279056084604       -1.33347861061808       -1.70481831659559
H           -0.45854883092819        0.18795097964037        1.94776167065162
H           -2.25136381406170       -1.42961466391601        2.39597483521878
