75
 energy: -110.001420791533 gnorm: 0.000040922222 xtb: 6.7.1 (edcfbbe)
C           -5.74425274219505       -3.02300280187512       -0.25093623570070
C           -4.42661129711077       -3.00263970991029        0.51449209119014
C           -3.54406569961437       -4.19179217331419        0.14342024963903
C           -2.27456511461602       -4.28257040697144        1.00195715005370
C           -1.33322429954966       -3.14205081257043        0.74690054210267
C           -0.45293103536015       -3.18324369278512       -0.32902114522111
C            0.42791105667941       -2.14796012215617       -0.57145939671347
C            0.44193861147566       -1.04126429567737        0.27076507054620
N            1.37016743232779       -0.00046360144819        0.07234686936359
C            1.12229018602799        1.36464458089222        0.13730972485009
C           -0.14228429253869        1.99800169014401        0.23577501708413
C           -0.20232428874511        3.20107550223443        0.97801493704396
C           -1.38998826523890        3.75592943487398        1.33587919819953
C           -2.63321173550129        3.17264640937286        0.91979514447364
C           -3.86254036451638        3.69497734181899        1.31532688491890
C           -5.05214659796630        3.15723777929222        0.84948445306719
C           -5.05056828417687        2.10562775124493       -0.07755236501511
C           -6.24911302751236        1.57738936967060       -0.62033766255907
C           -6.21276102134428        0.56848165245876       -1.56546041298451
C           -5.01138527317502        0.05323255414474       -2.00388430352122
C           -3.78199922229044        0.53773514998561       -1.48220845041741
C           -2.54304779103071        0.07114440057204       -1.93160940032043
C           -1.35932174037965        0.55144703541904       -1.39104301679406
C           -1.36041507766132        1.49382810325268       -0.36403877658558
C           -2.59774785776055        2.06465507652962        0.03140635639677
C           -3.80823730770903        1.56455702989723       -0.50276371112883
N            2.26781649742068        2.04023405494752        0.12150750214370
C            3.26439586984249        1.14129859579002        0.01374437104531
C            4.65337069857226        1.57028963376192       -0.02258816695601
C            5.69184649828558        0.76539379643152        0.44575067896357
C            6.99714382889570        1.21813753786191        0.40168553247853
C            7.28627728013819        2.47674089136021       -0.10136281069017
C            6.25796348027214        3.29077605955965       -0.55074237086439
C            4.95176558424532        2.84424176693924       -0.50935333900369
C            2.73125178654790       -0.15441158199064       -0.01397912669953
C            3.39940755091447       -1.44237648740195       -0.10981714175397
C            3.13379346187321       -2.46490056607518        0.80219709213853
C            3.78146944359204       -3.68102797182018        0.69254831644314
C            4.69718156741522       -3.89653839388433       -0.32490278191410
C            4.97168139403702       -2.88368581702599       -1.23114429396200
C            4.33120715208256       -1.66423869362259       -1.12620665160913
C           -0.44461928526339       -0.97841137883081        1.33921633597306
C           -1.32188454876999       -2.02100149593434        1.56793424555850
H           -6.31175831544663       -3.92082464013021       -0.01288851137593
H           -5.56216982316437       -3.00711708394464       -1.32295948739806
H           -6.34647764625459       -2.15472986127522        0.00562054092310
H           -3.89675094404928       -2.07159137783154        0.30095752435277
H           -4.63622514117191       -3.02837368297982        1.58676167027034
H           -4.11631550938431       -5.11342805036371        0.27469754308091
H           -3.26386505232132       -4.11854068095921       -0.90965661289905
H           -1.76740535358896       -5.22278838633872        0.77364929926594
H           -2.56050885011581       -4.29564554380089        2.05543170974504
H           -0.45115166340704       -4.04206814163249       -0.98421827105575
H            1.10653877808499       -2.19392373843000       -1.41047628235059
H            0.73396886864336        3.61931420496753        1.31696846094237
H           -1.42124122097784        4.63991726817117        1.95539825197112
H           -3.88216127151110        4.53744144723201        1.99233017703488
H           -5.99631574100238        3.56506613496023        1.18095897519170
H           -7.19306746852121        1.98646045180020       -0.29141638399673
H           -7.13872879772208        0.18559554969161       -1.97174418859605
H           -4.98555453481670       -0.72053411975147       -2.75629805301156
H           -2.50989814251227       -0.67493238136164       -2.71240263958724
H           -0.42125201416088        0.20281431562396       -1.79518499766123
H            5.47427380177659       -0.20756450533774        0.85998187905243
H            7.79353082426395        0.58647304610939        0.76811821632385
H            8.30843357807618        2.82445570529140       -0.13590881212963
H            6.47691338322899        4.27660787318655       -0.93500496245867
H            4.13947794613240        3.46694990284746       -0.85244201122440
H            2.43275424141118       -2.29650620333729        1.60689729155096
H            3.57106530119590       -4.46321889486180        1.40708945140163
H            5.19836611431909       -4.84918927918793       -0.40965042226952
H            5.68619352730452       -3.04536382678574       -2.02487903344781
H            4.53969033666883       -0.87371260413793       -1.83279587127190
H           -0.43273104148454       -0.11919045888924        1.99410330388693
H           -1.99880876946278       -1.96502832835221        2.40747118569229
