75
 energy: -110.073708121138 gnorm: 0.000037008906 xtb: 6.7.1 (edcfbbe)
C           -6.09775783235163       -4.98829871222352        0.64442852973533
C           -4.90638462178279       -5.20252643031084       -0.28241438293964
C           -3.81105678829509       -4.16540115294629       -0.04575619397010
C           -2.60729481189409       -4.37941852633052       -0.97325147128191
C           -1.55376602646254       -3.34371746108019       -0.71284706305189
C           -1.57980650952845       -2.12309530106994       -1.37819824492030
C           -0.64010207430281       -1.14646972153868       -1.11126143033013
C            0.34273722015219       -1.37737306792490       -0.15547993621671
N            1.29546894080100       -0.37805458663290        0.12420345098805
C            1.04691561671386        0.93437819429851        0.43620213035863
C           -0.28994887036713        1.47539525879811        0.63463897842288
C           -1.23154864977817        0.71730386605630        1.33152032761553
C           -2.50980235987073        1.18254711402549        1.54821758240123
C           -2.90197106754084        2.43814844246721        1.07968563695878
C           -4.21680339498597        2.94603279077761        1.29002426464127
C           -4.57579963082047        4.17181409537674        0.84303869120574
C           -3.65057253076602        5.00075920192632        0.14275526795010
C           -3.99923008878045        6.26965782480669       -0.32411351066688
C           -3.08030429799436        7.05135990213493       -1.00063714267745
C           -1.79722429833614        6.58863211704814       -1.22886185371845
C           -1.40466887816884        5.32601197246218       -0.77980026083026
C           -0.09302511369379        4.81370143987720       -0.99820488446375
C            0.27083383126540        3.58882269306960       -0.55122477920806
C           -0.64052277115766        2.75650134622604        0.16287835445757
C           -1.95768851888599        3.23474841664097        0.38499753436909
C           -2.33686495235007        4.51781048644948       -0.08365579737248
N            2.16694514958566        1.59634794649528        0.59668037783193
C            3.18757297438535        0.71714625322627        0.38823179642241
C            4.57036214175600        1.16744085855910        0.44953435219717
C            5.58652820199573        0.53547143941105       -0.26569703679686
C            6.88670616103920        0.99871025430236       -0.18724932992265
C            7.19209198862247        2.10089924113266        0.59500120996836
C            6.18442718266869        2.74739406020210        1.29312222437962
C            4.88396546016973        2.28689237848277        1.22066603067960
C            2.66395977048986       -0.53187063269839        0.09663807793609
C            3.31264107214373       -1.80770937998116       -0.18093129753008
C            2.95109076814482       -2.57277820786003       -1.28845848148445
C            3.57080202704470       -3.78495014483926       -1.53127597017355
C            4.55583093244191       -4.24926255959726       -0.67550603433422
C            4.92425539751093       -3.49231634112817        0.42576229508335
C            4.30801513859010       -2.28071762040372        0.67409577020753
C            0.38113435376159       -2.59254610913357        0.51798806246546
C           -0.56072045758155       -3.56318349626426        0.23462696834990
H           -6.53275442871669       -4.00346188555488        0.48606207991204
H           -5.78999068082551       -5.06240045493483        1.68562093745090
H           -6.86557409492007       -5.73648887774730        0.45961918331444
H           -4.49767646060130       -6.20306098441784       -0.12139751502229
H           -5.24061067278507       -5.14469996755258       -1.32112960044427
H           -4.21556753883230       -3.16375704593782       -0.20976913819182
H           -3.47648809904013       -4.22002853606227        0.99294521382254
H           -2.94149077870743       -4.31765231438193       -2.01074727196144
H           -2.19866087386960       -5.37741086328976       -0.80333341488101
H           -2.34156220616989       -1.93522199302975       -2.12059461927660
H           -0.66172634328941       -0.20302802042324       -1.63755642234697
H           -0.94764029584075       -0.24709438938869        1.72741940339783
H           -3.21747547343694        0.57548860086953        2.09431160838635
H           -4.92214658233220        2.32254525764515        1.82130580574430
H           -5.57482208211948        4.55003035408616        1.00844968822536
H           -5.00034006961356        6.63779316738562       -0.14988988637441
H           -3.36753001769968        8.03154066462987       -1.35373497206197
H           -1.08359744358937        7.20381794672468       -1.75835415513030
H            0.61317078627173        5.43169951909639       -1.53484579789326
H            1.27308845603876        3.22249659843869       -0.70925397468100
H            5.35502364096834       -0.31308921838638       -0.89250612389474
H            7.66604724946783        0.49913054737698       -0.74520636375982
H            8.20994466747535        2.45831065859448        0.65431252005524
H            6.41475791989954        3.61381669702677        1.89674821253936
H            4.08835418324250        2.78335769068781        1.75572835731428
H            2.19137861723198       -2.21022075110271       -1.96629348252982
H            3.28357776590540       -4.36778201715436       -2.39436211145578
H            5.03731084045530       -5.19687758347664       -0.86681424168967
H            5.69256497537690       -3.84901636154179        1.09627538915004
H            4.59031472686480       -1.68873345634215        1.53306283440015
H            1.14389597636030       -2.76894136046623        1.26220964890413
H           -0.52319744674412       -4.50530176362521        0.76160539625673
