36
 energy: -69.693377600071 gnorm: 0.000065377028 xtb: 6.7.1 (edcfbbe)
O            2.26133261226466       -0.20472452152750       -2.14443887360324
S            2.55847356862125       -0.71892892377944       -0.83006518668278
O            3.78302890859248       -1.44253199380972       -0.64418494726728
C            2.41294584118353        0.61383662219291        0.32081687577507
C            3.49043319753519        1.26573234874493        0.87939702034785
C            3.30319492541022        2.42814197204576        1.60758359714977
C            2.00053343716351        2.95574759848162        1.76201548648302
C            0.91968029032015        2.32324607134391        1.20448881786567
C            1.09052393061975        1.12738539532236        0.47817766206101
N            0.00119368719917        0.43537702361944       -0.00182493411954
C           -1.08539624577680        1.13156182616117       -0.47999520897271
C           -0.91164379788455        2.33035497374711       -1.20152881442175
C           -1.99032499068960        2.96668803743445       -1.75810078419062
C           -3.29477196108486        2.44096889194364       -1.60699122632099
C           -3.48520039788008        1.27665061504058       -0.88253827557694
C           -2.40988728487637        0.62017069621629       -0.32554743518035
S           -2.56024688181985       -0.71143818576945        0.82588984123301
O           -2.26425553982312       -0.19709468627676        2.14049537475499
O           -3.78593907585966       -1.43265225273073        0.63841503702458
C           -1.15901539437031       -1.67667188851284        0.30865978769955
C           -1.16908398194366       -3.07098038354689        0.29281357985287
C           -0.00294127126156       -3.76487347900446        0.00400329144258
C            1.16372211619004       -3.07444783313768       -0.28727798472707
C            1.15659033425946       -1.67987906836227       -0.30836758388321
C           -0.00082085635058       -0.96795956155801       -0.00072019422475
H            4.47363146299677        0.85353443193070        0.71275089645672
H            4.14338969769446        2.93845537900987        2.04924306204374
H            1.85798609517178        3.85408077109190        2.34059412114205
H           -0.08256952062858        2.69024745339810        1.36810676072788
H            0.09154095564052        2.69582766867182       -1.36280442022941
H           -1.84553597008382        3.86652353739108       -2.33375366817445
H           -4.13331545887620        2.95449996690930       -2.04799313835190
H           -4.46960026824741        0.86658579879815       -0.71762883366794
H           -2.09533470915334       -3.57192140279193        0.52087087397728
H           -0.00411862244398       -4.84375529458056        0.00589344147583
H            2.08909121720030       -3.57775328172577       -0.51393843844435
