36
 energy: -69.693404449832 gnorm: 0.000057104676 xtb: 6.7.1 (edcfbbe)
O            2.33694663046256       -0.21042512700931       -2.06833577547283
S            2.58063356138840       -0.73651713631831       -0.74739795569736
O            3.78876373824404       -1.47615373057822       -0.52326061681003
C            2.41089370843361        0.59300284575693        0.40424299574976
C            3.48087572742944        1.26281759745968        0.95006019966728
C            3.29126117142138        2.45746452306028        1.62650985539999
C            1.98633140728666        3.00991337140873        1.72335549535907
C            0.91382341672972        2.36891432203084        1.16910233828227
C            1.08207085979566        1.12872054599581        0.50943622869691
N            0.00437794237440        0.42417903910591        0.04515986510582
C           -1.08708636678961        1.10775061501044       -0.46519828913893
C           -0.90003237655984        2.25882464549411       -1.24934168786142
C           -1.97805563023252        2.88423243346678       -1.82856149561125
C           -3.28122594752294        2.38580353274851       -1.64287015759989
C           -3.48035800588229        1.25713266360354       -0.86754822772770
C           -2.40624709349156        0.62021350121457       -0.28193528883934
S           -2.55245382395638       -0.71956194950195        0.86359850976589
O           -2.22661010933142       -0.21763064915585        2.17556109181071
O           -3.79108020191043       -1.42298456974540        0.69192266065898
C           -1.17790949981706       -1.68487655487089        0.29682169777318
C           -1.20432431603331       -3.07726492323402        0.21385407972068
C           -0.05512069723216       -3.77338780543907       -0.10062980709724
C            1.13377170417160       -3.08342965030756       -0.34898452334706
C            1.14498847107946       -1.69590320526709       -0.29958769374791
C            0.00041865553457       -0.97737589263921        0.01975101409863
H            4.46480580691177        0.84003010041490        0.81629686884298
H            4.12598139309981        2.97713635658930        2.06691745380454
H            1.84457295522750        3.93445416019926        2.25911224649872
H           -0.08691912691530        2.75557204893907        1.29075297144628
H            0.10610743079271        2.60482503121588       -1.43370759936232
H           -1.82373189333833        3.75545906904326       -2.44466918646988
H           -4.11793848660095        2.88766341757351       -2.10114915187461
H           -4.46633324411486        0.85850074336753       -0.68600839633252
H           -2.13960909849100       -3.57318924016302        0.41802556169974
H           -0.06892638168721       -4.85083226575899       -0.15009089572889
H            2.05233549088275       -3.59283450828593       -0.58749861207584
