  36
        -69.80869116
 O          2.3602927373       -0.3207948598       -2.1336897758
 S          2.5863136850       -0.7493678241       -0.7785764705
 O          3.7963969263       -1.4645814253       -0.4917589215
 C          2.4104388664        0.6730472037        0.2769540496
 C          3.5032409991        1.3200226376        0.8206514949
 C          3.3154194053        2.4698245859        1.5660432429
 C          2.0282702225        2.9529517347        1.7624064851
 C          0.9346907581        2.2943771729        1.2348530017
 C          1.1153112908        1.1353569644        0.4760594735
 N          0.0007269292        0.4301422186        0.0036743361
 C         -1.1104777744        1.1388209201       -0.4711696995
 C         -0.9246377948        2.2993152122       -1.2265365928
 C         -2.0145478340        2.9605883147       -1.7580420999
 C         -3.3034328248        2.4788697034       -1.5692936842
 C         -3.4964283612        1.3282904966       -0.8265147991
 C         -2.4073578751        0.6785950837       -0.2785185239
 S         -2.5917481758       -0.7440466990        0.7754187941
 O         -2.3733110887       -0.3161129411        2.1319976393
 O         -3.8007715846       -1.4576086603        0.4800976143
 C         -1.1587652643       -1.6870939532        0.2806111559
 C         -1.1697235021       -3.0670152666        0.2645141044
 C         -0.0042160150       -3.7712478730        0.0029010838
 C          1.1626799017       -3.0697009929       -0.2598952715
 C          1.1545877780       -1.6898132006       -0.2760468784
 C         -0.0011938825       -0.9604900780        0.0026394978
 H          4.4826070588        0.9064170139        0.6392772104
 H          4.1610536902        2.9876493747        1.9899999482
 H          1.8737398985        3.8466569670        2.3475483770
 H         -0.0652981031        2.6565099828        1.4181963283
 H          0.0766663658        2.6601203377       -1.4051243565
 H         -1.8556602737        3.8546218214       -2.3415197702
 H         -4.1459389784        2.9979111447       -1.9978421623
 H         -4.4773165121        0.9157558720       -0.6509546547
 H         -2.1024300422       -3.5669433272        0.4749124617
 H         -0.0056325294       -4.8492510933        0.0022677058
 H          2.0936193426       -3.5717717951       -0.4729835943
