62
 energy: -101.946623406777 gnorm: 0.000048575675 xtb: 6.7.1 (edcfbbe)
O           -0.11535107356052       -4.03827989244381        1.30237382575687
C           -0.88735114114870       -3.26945865569318        0.66604400340315
C           -2.17024913583704       -3.69554903766494        0.20455852652646
C           -2.97829627001965       -3.07194974076250       -0.78073368518826
N           -4.12904008860793       -3.54552122612904       -1.17408312063855
C           -4.56685165154361       -4.68443866190661       -0.64279365766429
N           -3.85463065198483       -5.39064363035129        0.23252936563594
C           -2.70453974253663       -4.94571967153673        0.63714693310477
C           -0.44417197317112       -1.88925603330623        0.37356686953740
C           -1.31211421819525       -0.79331393633648        0.38857034939989
C           -0.81822575636323        0.49035264371383        0.17929736988321
N           -1.68425401472778        1.58968221469426        0.25265126903370
C           -2.87408130552351        1.73472908500750       -0.43152954522922
C           -3.44528418549422        0.91327245110622       -1.39380724292660
C           -4.64626679869538        1.30934988129002       -1.95300888793398
C           -5.26143973801082        2.50072593447325       -1.57719919472574
C           -4.68294330125900        3.33847508788446       -0.63843040786364
C           -3.48121828511446        2.95805832238909       -0.06141846757043
C           -2.60760709978867        3.56955622648902        0.90681052426452
C           -2.66817679905946        4.74693619518840        1.63613633710196
C           -1.64229021721482        5.03017896458169        2.52199104562233
C           -0.57693458598200        4.14995852607355        2.69163170157838
C           -0.49550572564668        2.96938149387132        1.97527396870721
C           -1.51085751495532        2.69048721150829        1.06958698801549
C            0.54188630389036        0.70187281369723       -0.03356742894699
C            1.41303441831021       -0.38594665197019       -0.02089298751881
N            2.78200334151472       -0.18995980117609       -0.23081014339491
C            3.34527679051396        0.53891430342714       -1.25991502976146
C            2.73179864360029        1.19791784083472       -2.31771731845441
C            3.54356137456504        1.84048816477869       -3.23523586694547
C            4.93045335349491        1.82345142839050       -3.11470613126367
C            5.54842377691037        1.14692074372891       -2.07619635480211
C            4.75495343164762        0.49530445848857       -1.14503157336518
C            5.04529128892468       -0.30599703852295        0.01645297363368
C            6.22258160288311       -0.69050689784213        0.63880452061119
C            6.14299302550753       -1.47484551944676        1.77745613034511
C            4.91084793781815       -1.85786089027929        2.30076059942546
C            3.72269452600633       -1.48157344436774        1.70028599352158
C            3.79775469208731       -0.71625960126999        0.54336134970637
C            0.92164209645350       -1.66866459753959        0.17870200484249
H           -2.63489938820303       -2.17813035948871       -1.28568579716063
H           -5.52697283859479       -5.06289309908701       -0.95050242845425
H           -2.12752583316809       -5.54575453057616        1.32960770217422
H           -2.35430443610469       -0.92251227492244        0.63693150775143
H           -2.96609102875908       -0.00148557197641       -1.70487529840889
H           -5.11277664650285        0.68119958095972       -2.69679798218928
H           -6.19999093864652        2.77671192771562       -2.03375851700334
H           -5.15371003222757        4.26965745689213       -0.36299227744322
H           -3.49998975315157        5.42392236456058        1.51714449053711
H           -1.67049102300983        5.94260449908425        3.09845269084120
H            0.20116337316405        4.39078209259888        3.40034613588641
H            0.32376698541457        2.28416556043216        2.12885758328712
H            0.91847850523085        1.70117141004873       -0.18310991552991
H            1.65912866001282        1.19792092107537       -2.43326814510402
H            3.09042769203360        2.36175409132016       -4.06506545058700
H            5.53125541964338        2.33742979119439       -3.84985970791513
H            6.62405737158084        1.12098950594148       -1.99464130776885
H            7.17871001690376       -0.38287731631647        0.24420467415844
H            7.04832108941479       -1.78951698362067        2.27447567926180
H            4.87891313889338       -2.46006717557122        3.19639913979229
H            2.77329320416130       -1.77590145177630        2.12077597179534
H            1.58426075681210       -2.52028690125744        0.16271456625305
