62
 energy: -101.946635498679 gnorm: 0.000046152822 xtb: 6.7.1 (edcfbbe)
O           -0.03611528248526       -4.03697223421580        1.30035218558750
C           -0.82033923741086       -3.28589701608232        0.65796096651888
C           -2.09076293081331       -3.73914422999360        0.18852012057772
C           -2.90463092561635       -3.13225200377631       -0.80241876450310
N           -4.04320166892585       -3.62856810412092       -1.20287390401061
C           -4.46166752532129       -4.77584102852679       -0.67372549248710
N           -3.74086109250893       -5.46764951752938        0.20607316488072
C           -2.60240813990723       -4.99995470397445        0.61784859465996
C           -0.40509648869873       -1.89663407002298        0.36593728768606
C           -1.29587283850019       -0.81927330688980        0.37931054009856
C           -0.82889240311078        0.47461139646453        0.17020248720534
N           -1.71774476719701        1.55534663301006        0.24339309767063
C           -2.91507069730140        1.67159876041308       -0.43350492120177
C           -3.47382955362119        0.83542395049606       -1.39041622256968
C           -4.68807527557553        1.20191277655665       -1.94112386239320
C           -5.32846615956824        2.37909992869836       -1.56283764376031
C           -4.76244519603602        3.23235798673750       -0.63046711669066
C           -3.54777980600350        2.88142468872521       -0.06194032074202
C           -2.68207326015878        3.51530162615051        0.89892680493503
C           -2.76525964004223        4.69292550095077        1.62561567959796
C           -1.74082972233107        5.00196984047719        2.50446158631453
C           -0.65505813445745        4.14633240330885        2.67028925749462
C           -0.55116072498042        2.96581827421910        1.95671636453701
C           -1.56465118135128        2.66184256491662        1.05703092808099
C            0.52690390357337        0.71428814762414       -0.04093109110585
C            1.42078623077810       -0.35484293819637       -0.02563026096276
N            2.78595717559593       -0.13112201305869       -0.23206655396116
C            3.33782232629644        0.60871213877963       -1.25962585747061
C            2.71444628249130        1.25889999188499       -2.31708710848761
C            3.51616312232167        1.91703314746214       -3.23242337361605
C            4.90297288646767        1.92377269840921       -3.11015739308517
C            5.53122007227699        1.25588967675728       -2.07223041573718
C            4.74791496380606        0.58918364006147       -1.14313435011666
C            5.05074324418948       -0.20866818468754        0.01754109151018
C            6.23384089064166       -0.57435482497972        0.64024568995472
C            6.16653589402544       -1.36097311305134        1.77811085244214
C            4.94054493799679       -1.76429635274997        2.30058436087846
C            3.74676948524467       -1.40739193747102        1.69946204482768
C            3.80987366565514       -0.64047805245924        0.54286745854867
C            0.95598228462194       -1.64765479039082        0.17347290432179
H           -2.57534889838821       -2.23201336375191       -1.30550047093836
H           -5.41221035629899       -5.17326619510050       -0.98717383296369
H           -2.01781213484363       -5.58829971598715        1.31395576372834
H           -2.33538433712178       -0.97059442925255        0.62646790414688
H           -2.97571635600248       -0.06827542804542       -1.70391253367937
H           -5.14510174252401        0.56135977260226       -2.68019896088865
H           -6.27694765284372        2.63160235685564       -2.01241177350825
H           -5.25265885292081        4.15292641921894       -0.35331594881529
H           -3.61344682973473        5.34994431725339        1.51019020566929
H           -1.78619976423160        5.91515168454775        3.07861850417319
H            0.12136958152215        4.40642609604285        3.37399234755994
H            0.28370914767259        2.29929220587556        2.10842440580517
H            0.88273956238966        1.72105564546282       -0.19093987671973
H            1.64212026956658        1.24047653776029       -2.43421239784198
H            3.05510368894353        2.43203738004225       -4.06180142625259
H            5.49573459558778        2.44945168881802       -3.84355562204200
H            6.60704260329533        1.24822794179655       -1.98946292588753
H            7.18508806885040       -0.25094625006861        0.24645200414879
H            7.07661633209077       -1.66134272078487        2.27530559743659
H            4.91791087143133       -2.36724171122141        3.19601735986102
H            2.80212663169064       -1.71740483911052        2.11940865270670
H            1.63642655699950       -2.48511741076535        0.15877388254978
