62
 energy: -102.015184778396 gnorm: 0.000176876571 xtb: 6.7.1 (edcfbbe)
O           -0.11556726409705       -4.23748892514344        0.95603302362652
C           -0.83262468171814       -3.36021397775728        0.51182663089214
C           -2.23268198829958       -3.64797492210330        0.10684933941417
C           -2.78273518997123       -3.19896317480953       -1.09558230182350
N           -4.02550040625467       -3.47598958323361       -1.44534918288771
C           -4.72951686345774       -4.22860038772951       -0.61864026808071
N           -4.30335500557553       -4.74368036978532        0.52160209435249
C           -3.06769224854464       -4.45414558048563        0.88447671806769
C           -0.37278874997266       -1.96563197104007        0.32739512091072
C           -1.26328424432334       -0.89582738062849        0.37097459034163
C           -0.79000636275882        0.40480937599721        0.21495050669716
N           -1.67152309606495        1.48506437376787        0.28231233641865
C           -2.89003818794242        1.58128871170554       -0.36995299121246
C           -3.48457852216883        0.70978586342871       -1.27046354184723
C           -4.71105455410458        1.06331439653063       -1.80166327531005
C           -5.33146545795381        2.26270906768549       -1.46035723280837
C           -4.73068028616592        3.14874918272654       -0.58761270905555
C           -3.49980932723243        2.81222313236968       -0.03902989983680
C           -2.60635474369199        3.48321364369892        0.86550578993602
C           -2.66844517724241        4.69620165922141        1.53936920690979
C           -1.62859220974565        5.03958931378488        2.38075460264283
C           -0.54670846704582        4.18234670603315        2.56693666019634
C           -0.46306362661056        2.97045445494775        1.90635046329469
C           -1.49060577133664        2.63329859637120        1.03732059199241
C            0.56921618218484        0.62652018555031        0.00588290277719
C            1.46293900409048       -0.44165110724418       -0.02530982086976
N            2.82444886121124       -0.20893720489905       -0.22391911519037
C            3.37835470902752        0.58764639757829       -1.21261881587258
C            2.75931717966041        1.27977471913449       -2.24338990290176
C            3.56237818735333        1.97739655187234       -3.12676335041823
C            4.94936837221168        1.98432234985920       -2.99939399798793
C            5.57244795413403        1.27640009757986       -1.99042938295079
C            4.78613788954875        0.56673517594892       -1.09193758361287
C            5.09028011756800       -0.27957251109527        0.02969709034055
C            6.27779018803087       -0.66314997632070        0.63962606688921
C            6.21725294192702       -1.49233969451715        1.74239874107617
C            4.99252289104299       -1.92396825373904        2.24676155549789
C            3.79772268244117       -1.55501812180343        1.65669740936935
C            3.85420955826293       -0.74374070440499        0.53276355464926
C            0.98843102318801       -1.73872599583923        0.14225946418764
H           -2.20203958838640       -2.62002786120077       -1.80280773426415
H           -5.74852828451851       -4.45188210130194       -0.90670400735958
H           -2.72562314518306       -4.86200793197092        1.82708234058536
H           -2.31042219935869       -1.05927897511744        0.57256968573010
H           -3.00790420134585       -0.21342802145238       -1.56060499560937
H           -5.19391979306929        0.39431660830418       -2.49850525356012
H           -6.29076066968495        2.50325748603819       -1.89401456169611
H           -5.20281784364972        4.08656453967976       -0.33667097673254
H           -3.51709093074231        5.35070141889233        1.40987850607163
H           -1.65578664633818        5.97914970716048        2.91254250983940
H            0.24384012907579        4.46764439887249        3.24535308407652
H            0.37092837782470        2.30736712083948        2.07918008319629
H            0.93354078073103        1.63369727467862       -0.12368640546123
H            1.68709483739179        1.26768895542946       -2.36730980982878
H            3.10264475074952        2.52591513198219       -3.93576745943908
H            5.54225045571145        2.54385315024586       -3.70781016865549
H            6.64828670753344        1.26622337843097       -1.90199958377310
H            7.22584614049437       -0.31456956186442        0.25860674223667
H            7.12883851189529       -1.80537321855521        2.22973597718391
H            4.97397375810506       -2.55935801308420        3.12015208884317
H            2.85562074180712       -1.88549331992389        2.06753495021517
H            1.66035648729831       -2.58200125578243        0.10322508184503
