62
 energy: -102.015210967829 gnorm: 0.000072629987 xtb: 6.7.1 (edcfbbe)
O            0.19673085212245       -4.45807841770525        0.93979939589403
C           -0.60680092966186       -3.64202815372576        0.52788301772568
C           -1.99130234628519       -4.04518695836609        0.17129794784350
C           -2.62329360179732       -3.63592816821248       -1.00471705118489
N           -3.84916183366502       -4.01853679020763       -1.31216544683579
C           -4.45276966340658       -4.83786311192847       -0.46964511653555
N           -3.94116987918934       -5.32236203735178        0.64869945699854
C           -2.72326173573024       -4.92756810114198        0.96989585841858
C           -0.27103706823859       -2.21311648499654        0.33945172792430
C           -1.24445141219138       -1.22013170599661        0.41691706163934
C           -0.88318501756087        0.11571407171388        0.25867938657297
N           -1.84769690574332        1.12000516990924        0.35920713388107
C           -3.08477470637062        1.12331891987848       -0.26415921882667
C           -3.62780048097355        0.21364083704189       -1.15933802375306
C           -4.89061293216591        0.47113482581110       -1.65958274366287
C           -5.59726859453612        1.61412460399772       -1.29302131654544
C           -5.04978257765737        2.53885013106292       -0.42525537752116
C           -3.78334415028225        2.29868413164561        0.09224847057748
C           -2.92560307503768        3.03195644755477        0.98300009160895
C           -3.06839402782806        4.23029129761713        1.67067324784347
C           -2.04014993898184        4.64831299449880        2.49232892270209
C           -0.88917546331290        3.87892364996536        2.64528399790784
C           -0.72422036150245        2.68373220822267        1.96983989146649
C           -1.74170972699758        2.27288939723015        1.12101318155390
C            0.44696274965006        0.44963221128349        0.01470416651556
C            1.42349711671938       -0.54165340897508       -0.05199447676764
N            2.75567042277328       -0.19837094283481       -0.28502051487772
C            3.21722381975548        0.65203226745854       -1.27639104561732
C            2.51689805656448        1.30813621972394       -2.27829468358833
C            3.23726833179756        2.08041070447182       -3.17084324134037
C            4.62262549303163        2.19400281533346       -3.08153572227066
C            5.32773801244076        1.52196948805480       -2.10248270690532
C            4.62527359352392        0.73971533183736       -1.19490263633919
C            5.02655862071035       -0.09465861281343       -0.09507525702324
C            6.25719827836558       -0.39148952788367        0.47653600664119
C            6.29264935303343       -1.23516835280035        1.56935686455323
C            5.12026235157230       -1.76735452372648        2.10112106545361
C            3.88415498794823       -1.48580956009080        1.54933901449543
C            3.84536041149050       -0.66024401067355        0.43509553143860
C            1.06084819770697       -1.87420783008440        0.11629575822384
H           -2.12221669902006       -3.00263779049340       -1.72609075512361
H           -5.45827964795055       -5.14775863497136       -0.72292492846856
H           -2.31168745027310       -5.31129091182957        1.89472582146839
H           -2.26861001668085       -1.46976063099532        0.64652848146876
H           -3.08444380049782       -0.66554681090175       -1.46842947968875
H           -5.33410401109471       -0.22956079728913       -2.35146300053339
H           -6.58260006522013        1.77991820198473       -1.70271588453638
H           -5.59013805327312        3.43343578153686       -0.15479632162198
H           -3.96897049809277        4.81636968690000        1.56682465068353
H           -2.13004348280530        5.57800121950569        3.03449394961013
H           -0.10851861375662        4.22053370887693        3.30905784602251
H            0.16401996761834        2.08803998340746        2.11615618419284
H            0.72414292826512        1.48431097383189       -0.11358727537717
H            1.44577697953951        1.21366677032981       -2.37307557184371
H            2.71337977276903        2.60315701162993       -3.95761251912291
H            5.14940941701593        2.80913619109092       -3.79603864522550
H            6.40321136144802        1.59476324440590       -2.04385731745594
H            7.16413261582246        0.03422158769223        0.07447056891683
H            7.23929180012293       -1.48141259588190        2.02727006203019
H            5.17607907913342       -2.41238797362862        2.96580352960916
H            2.98274208653325       -1.89323939178366        1.98165280181509
H            1.79747311031065       -2.65967684821825        0.04936418489023
