68
 energy: -116.753148434153 gnorm: 0.000062678016 xtb: 6.7.1 (edcfbbe)
C            1.98524688858677        4.06641833303468        2.53530648483551
C            1.16613887791186        3.32988515618514        1.68372496748842
C            1.64366438835714        2.22399831848137        1.01000163403767
C            2.96617791682224        1.84215603386436        1.20461644798974
C            3.79321256922774        2.62956978643162        2.03336351095596
C            3.31612255399039        3.73470266887143        2.71454956843934
O            5.07432108291647        2.17696398307588        2.03630584712391
C            5.10560667632873        1.10178452734699        1.20486525859964
C            6.25756441142132        0.40206392257892        0.86750135699245
C            6.14961292155336       -0.62784121110101       -0.04561739635825
C            4.90093469685466       -0.97133482902738       -0.55481792638063
C            4.49559661032923       -1.98451624333570       -1.49168978321243
C            5.18503495050998       -2.93086728044920       -2.23623776623209
C            4.46485077786819       -3.77438578176148       -3.06160264310848
C            3.07824224216513       -3.68416217263388       -3.14970914159710
C            2.37005816728027       -2.75115629260997       -2.41435632955741
C            3.09104113150842       -1.89990499146085       -1.59364774837765
N            2.63097031364325       -0.88007889669330       -0.77094546701283
C            1.29942077673634       -0.78335354390702       -0.38480067919599
C            0.94070096186914       -0.82484963269578        0.94298249602474
N           -0.33695129820121       -0.76242925297563        1.34251737175925
C           -1.29892603511962       -0.78446267912572        0.38411701317517
N           -2.63043517677353       -0.88232469370542        0.77016619149963
C           -3.08992629327538       -1.90318439010706        1.59191467039973
C           -2.36845972056496       -2.75480427654623        2.41181325689069
C           -3.07611411732012       -3.68890025526231        3.14628444019212
C           -4.46267514149341       -3.77981508451392        3.05810521133614
C           -5.18333718038011       -2.93592443811978        2.23354974783841
C           -4.49443210186279       -1.98847854886398        1.48988354553533
C           -4.90034287558772       -0.97465601910027        0.55396394193754
C           -6.14922204438466       -0.63139107785299        0.04507917418457
C           -6.25775044337515        0.39927348051024       -0.86709986802369
C           -5.10618138153515        1.09994543423054       -1.20384496648834
O           -5.07549718807653        2.17586366555694       -2.03433821953906
C           -3.79463880749637        2.62917927610643       -2.03100472154438
C           -3.31815721119992        3.73515752609687       -2.71124693433256
C           -1.98746313431003        4.06744580004833       -2.53172705640804
C           -1.16795190472347        3.33064015187108       -1.68077193619789
C           -1.64486672914100        2.22391580497299       -1.00799103379336
C           -2.96716729064487        1.84150660332230       -1.20294461642011
C           -3.82458814854372        0.80901025272008       -0.68589449364960
C           -3.71986050803374       -0.29959481364099        0.15822506692336
C           -0.94018960588706       -0.82452005751802       -0.94369705590592
N            0.33742546640335       -0.76098687246782       -1.34315949676927
C            3.72006344003357       -0.29730660403773       -0.15846550690254
C            3.82417202917098        0.81059560052917        0.68666030232785
H            1.57944557350900        4.92347942354063        3.05093518242913
H            0.13978271519885        3.63410856013968        1.54175135846191
H            1.01366952025442        1.67802413877922        0.32954056572824
H            3.96802794566185        4.31459473123959        3.34776837081709
H            7.20432755673233        0.68477244499289        1.29702862012166
H            7.02623806554073       -1.17059865031133       -0.36199005441073
H            6.26014340081706       -3.00178999488326       -2.17273134412871
H            4.98339834994869       -4.51728467795975       -3.64912190533218
H            2.54476708777977       -4.35792332278681       -3.80324640067575
H            1.29596116772312       -2.67725028617843       -2.48129004007818
H            1.69212292058080       -0.88962461338283        1.71318766944350
H           -1.29440464515517       -2.68034996192849        2.47881353273316
H           -2.54225839316521       -4.36297089653432        3.79919427541101
H           -4.98080181115555       -4.52355579395018        3.64493121557906
H           -6.25840472827778       -3.00738426805989        2.16997967532604
H           -7.02553682498480       -1.17493234745370        0.36096296891949
H           -7.20467022013445        0.68184155351357       -1.29637367069621
H           -3.97038315508352        4.31522980873981       -3.34397168839286
H           -1.58213326808183        4.92517007231026       -3.04662569798763
H           -0.14176688451162        3.63531439509953       -1.53852596345708
H           -1.01457946161868        1.67771917363320       -0.32798142035899
H           -1.69156268978607       -0.88902932460735       -1.71397040722399
