73
 energy: -100.715141651893 gnorm: 0.000086432443 xtb: 6.7.1 (edcfbbe)
C           -4.33832751280660       -5.23468435439851       -0.92552224905858
C           -3.07356661730975       -5.16804994484544       -0.06529646858551
C           -2.06742081250651       -6.18870657727658       -0.61587818672446
C           -3.45473812916328       -5.53976375390290        1.37476601552019
C           -2.43440867985027       -3.78860007440873       -0.06949800055164
C           -1.26919958757002       -3.56760152767345        0.66223578278006
C           -0.65217550007923       -2.33508497193082        0.69328679252119
C           -1.17987823715464       -1.26264535374480       -0.02395910042252
N           -0.56032487828242       -0.00843650044217        0.00032014776610
C            0.83035110548479        0.08914041653105        0.00728082164087
C            1.46842900692964        1.11791821915324        0.70273504481875
C            2.84187391181687        1.22560016077583        0.69180826662159
C            3.62730274362302        0.30520426659746       -0.00043025764711
C            5.08956695539660        0.41473263569135       -0.01653703157547
C            5.88316394015840       -0.70915440121705        0.18431267719991
C            7.26832341701519       -0.64380624901483        0.19281874420890
N            8.04081402795192       -1.78354447419176        0.37104328948277
C            7.90471041172196        0.59206902955306       -0.05342957713212
N            9.29786562019166        0.66394620503516       -0.02465663339774
C            7.12606687937531        1.71713906645875       -0.24529917171123
C            5.73029209624901        1.64503073030831       -0.22205299733193
C            5.00712224807358        2.82558605567209       -0.48530017803498
N            4.47071132349607        3.81193403744716       -0.72792459199466
C            2.98811750140278       -0.73335159657799       -0.67607304167314
C            1.61418539012369       -0.83795094164095       -0.68231605512568
C           -1.34554342535614        1.15233062140841        0.00739081401302
C           -2.53733100959774        1.20032812886996        0.72749549380369
C           -3.30658909545410        2.34480861324450        0.72788624186153
C           -2.92576443941693        3.48655253872801        0.02575040652754
C           -3.80752893721805        4.72425484391571        0.06934416194368
C           -3.24330070750081        5.87936347185220       -0.76205632207133
C           -3.93185849730506        5.19851499798972        1.52429732570180
C           -5.19618591746200        4.37169281113474       -0.48248489274419
C           -1.73395924902009        3.42690259854476       -0.68698081785897
C           -0.95760804526706        2.28369825211694       -0.70376425737408
C           -2.34309448974703       -1.47149779318827       -0.75908652461334
C           -2.95564787843125       -2.71025154224967       -0.77465579433237
H           -4.75056051421082       -6.24112961143553       -0.88674616784187
H           -5.09723013243170       -4.54703293319779       -0.55961153530663
H           -4.11736117817386       -5.00224346394389       -1.96471445379625
H           -1.77545186760425       -5.91913260583476       -1.62884211338175
H           -1.17116027943079       -6.23165804742219       -0.00329526117831
H           -2.51303645377130       -7.18113465759313       -0.63743915088992
H           -4.15367464758440       -4.81002685497995        1.77834660591806
H           -2.58175097386034       -5.56804835489176        2.02089965718131
H           -3.92717454114213       -6.51968511230100        1.39712135137796
H           -0.82900740808944       -4.37107624994221        1.23378330078731
H            0.24437966062779       -2.19303185049380        1.27933471435794
H            0.87625254298917        1.83200892452373        1.25530131645701
H            3.31443677899258        2.02033151299860        1.24944096359891
H            5.40633479540642       -1.66115925849604        0.37172479107644
H            7.52892637879498       -2.57936301135596        0.72171269364084
H            8.90930281160349       -1.62920103079720        0.86139320120605
H            9.75861396713907       -0.12164985399488       -0.46171768942251
H            9.65973118228926        1.54594857715408       -0.35811941776101
H            7.60066214883775        2.67157817947488       -0.42698536154997
H            3.57765357478984       -1.44638505643600       -1.23444890260054
H            1.13456270875349       -1.63404725701826       -1.23293616874973
H           -2.85486147804612        0.33420734206470        1.29009011847155
H           -4.22163943620259        2.34187548988507        1.30111711287758
H           -2.26716786127256        6.18604740269849       -0.39395781738287
H           -3.91202936513849        6.73530592353530       -0.69420924604629
H           -3.15818082216663        5.60199593401975       -1.81017207715977
H           -4.38447427124505        4.43614031611736        2.15236337881323
H           -2.94885173141406        5.43286533706673        1.92748267778553
H           -4.54880460809570        6.09330526729175        1.57608816263457
H           -5.67461867966939        3.59836265890958        0.11208704873106
H           -5.83682201537143        5.25118257065367       -0.47619123387759
H           -5.11316071603972        4.01233174717869       -1.50619332163628
H           -1.38825257206091        4.27591567878181       -1.25321262674601
H           -0.03965797942764        2.26728773778619       -1.27297245217759
H           -2.76750864101662       -0.65452354036756       -1.32440719466600
H           -3.85286130928925       -2.81978249397550       -1.36168477919102
