  53
        -84.77266666
 N         -5.5781765239       -3.4206190523       -0.3794850483
 C         -4.4934168675       -3.0441018140       -0.2233855138
 C         -3.2056078810       -2.5851305103       -0.0034904467
 C         -2.2050907478       -3.4558045461        0.5640123946
 C         -0.9322175834       -3.0219126057        0.7378507558
 C         -0.5614686257       -1.6896461129        0.4173942360
 N          0.6814124003       -1.1933209205        0.7554477305
 C          0.9171379076        0.0525686678        1.3174267657
 C          0.0284517817        0.9066408657        1.9513754867
 C          0.5166156216        2.1092124224        2.4337895769
 C          1.8657483967        2.4388994635        2.3095593220
 C          2.7715646930        1.5566176983        1.7483800113
 C          2.3058308751        0.3405196556        1.2662789888
 C          2.9361283743       -0.8088160455        0.6923703683
 C          4.2520331660       -1.1228882991        0.3797939600
 C          4.5205814820       -2.3375747304       -0.2233793598
 C          3.4961541626       -3.2340917379       -0.5326267604
 C          2.1776795746       -2.9476997762       -0.2255245635
 C          1.9010045418       -1.7420342497        0.4033046719
 C         -1.5523349971       -0.8289016694       -0.1989167330
 N         -1.1593797152        0.4267354085       -0.6615619284
 C          0.0192729722        0.6958357028       -1.3371334530
 C          0.8845724528       -0.1806833378       -1.9748689083
 C          2.0078843119        0.3494985325       -2.5838429059
 C          2.2479903863        1.7208696958       -2.5878467394
 C          1.3518934744        2.6048439124       -2.0139285259
 C          0.2206531741        2.0944690604       -1.3945376958
 C         -0.9103555312        2.6939119286       -0.7433886253
 C         -1.2691348073        4.0056272451       -0.4713636684
 C         -2.4423168268        4.2416589067        0.2217657630
 C         -3.2456524668        3.1889710272        0.6563537581
 C         -2.9101505186        1.8732552213        0.3956691925
 C         -1.7449140285        1.6292952932       -0.3189915554
 C         -2.8353769805       -1.2746586213       -0.3777208540
 H         -2.4982932096       -4.4536036594        0.8504606486
 H         -0.1939253522       -3.6616595210        1.1978460989
 H         -1.0090560472        0.6385668300        2.0840918996
 H         -0.1593500737        2.7973911183        2.9170152844
 H          2.2099568742        3.3913919955        2.6831691268
 H          3.8207819168        1.8020926042        1.6904293026
 H          5.0453185709       -0.4242741171        0.5969261730
 H          5.5387075875       -2.5975947972       -0.4719872279
 H          3.7356830945       -4.1650727655       -1.0228129624
 H          1.3922003194       -3.6414312356       -0.4831871220
 H          0.6860783008       -1.2413278632       -2.0078043844
 H          2.7063854885       -0.3151608273       -3.0687715166
 H          3.1389014371        2.0982484393       -3.0664779611
 H          1.5234651183        3.6696526956       -2.0490574823
 H         -0.6385292566        4.8215566479       -0.7892859759
 H         -2.7404191574        5.2562541974        0.4393818190
 H         -4.1479785897        3.4039370990        1.2082108033
 H         -3.5347491392        1.0661506202        0.7463738515
 H         -3.5619481716       -0.6485111146       -0.8744232833
  53
        -84.77255943
 N         -5.6006714941       -3.4133345340       -0.3265353816
 C         -4.5119284978       -3.0393480835       -0.1922944655
 C         -3.2178626811       -2.5882529147        0.0047517971
 C         -2.2066848681       -3.4736286439        0.5301205168
 C         -0.9297302034       -3.0462849716        0.6921216424
 C         -0.5673097494       -1.7066532112        0.3965123416
 N          0.6651132068       -1.1945159235        0.7508957679
 C          0.8620379495        0.0439487769        1.3447778247
 C         -0.0544075705        0.8512074113        1.9990778045
 C          0.3947146531        2.0552571071        2.5159663598
 C          1.7320935431        2.4313454152        2.4019771218
 C          2.6657538559        1.5955602272        1.8153515451
 C          2.2397981736        0.3782819979        1.2997488303
 C          2.9052925760       -0.7348162693        0.6946045771
 C          4.2292604525       -0.9964040867        0.3682138702
 C          4.5351386241       -2.1858300588       -0.2662063960
 C          3.5400662354       -3.1101567994       -0.5906441063
 C          2.2146702374       -2.8768340480       -0.2701965374
 C          1.9000622774       -1.6945915715        0.3850183098
 C         -1.5639315252       -0.8377670163       -0.1995717901
 N         -1.1550742728        0.4108646860       -0.6689260833
 C          0.0195708693        0.6440519866       -1.3654174063
 C          0.8436839464       -0.2599340165       -2.0185058688
 C          1.9708289666        0.2341661280       -2.6507119719
 C          2.2545229326        1.5967942938       -2.6591533720
 C          1.4004620240        2.5087289334       -2.0648487149
 C          0.2657777091        2.0347900061       -1.4230543091
 C         -0.8322040456        2.6681798975       -0.7475689465
 C         -1.1400236241        3.9890859097       -0.4594974751
 C         -2.2911078859        4.2600356201        0.2574978675
 C         -3.1245823361        3.2327041973        0.6966702161
 C         -2.8405045642        1.9084628426        0.4202746742
 C         -1.6944286088        1.6295417697       -0.3128118969
 C         -2.8520165887       -1.2729528954       -0.3595802815
 H         -2.4957993042       -4.4786004157        0.7949929875
 H         -0.1834184960       -3.6979055269        1.1211570545
 H         -1.0823409798        0.5446903497        2.1227893756
 H         -0.3031529781        2.7069874258        3.0181812939
 H          2.0458833813        3.3828223221        2.8040921153
 H          3.7060723413        1.8777281274        1.7634724365
 H          4.9994298024       -0.2763510105        0.5984385294
 H          5.5597820537       -2.4041885908       -0.5275358696
 H          3.8093091025       -4.0208539670       -1.1030461729
 H          1.4516472973       -3.5917548940       -0.5372553897
 H          0.6093757722       -1.3134597891       -2.0461310643
 H          2.6381051836       -0.4524203808       -3.1488872237
 H          3.1470393474        1.9457496738       -3.1560705294
 H          1.6070418312        3.5672417199       -2.1015121342
 H         -0.4872975333        4.7852022288       -0.7830340659
 H         -2.5493068789        5.2826308714        0.4882762629
 H         -4.0103951055        3.4754810803        1.2636398297
 H         -3.4880230945        1.1203141747        0.7728464520
 H         -3.5848481729       -0.6391906458       -0.8369502854
  53
        -84.77195899
 N         -5.2200035093       -3.7739697226       -1.0172594904
 C         -4.2603516567       -3.2545065060       -0.6282930337
 C         -3.0959947858       -2.6596736133       -0.1694257035
 C         -2.4675933663       -3.1136090774        1.0453338082
 C         -1.3726078046       -2.4758108549        1.5272689400
 C         -0.7772897588       -1.3882679343        0.8349958843
 N          0.3717177458       -0.8036650929        1.3280543012
 C          0.5224774136       -0.3200586448        2.6203813991
 C         -0.3368670039       -0.4157737591        3.7041931441
 C          0.0264936370        0.2157476741        4.8825289986
 C          1.2163748902        0.9364135936        4.9772280769
 C          2.0617817705        1.0678084267        3.8903655489
 C          1.7169009846        0.4469882316        2.6967493193
 C          2.3146985218        0.4081611050        1.3973984902
 C          3.4584821174        0.9704236886        0.8478469774
 C          3.7732508395        0.6825187567       -0.4674664434
 C          2.9924133285       -0.1945418138       -1.2226827938
 C          1.8432702775       -0.7585795504       -0.6992940359
 C          1.4718992036       -0.4035619587        0.5898683379
 C         -1.3963419652       -0.9425071338       -0.3973090268
 N         -0.8807673648        0.1478540187       -1.0961769563
 C         -0.5335268640        0.1230716480       -2.4369181418
 C         -0.7325641154       -0.8716783498       -3.3834645875
 C         -0.2375110653       -0.6615477586       -4.6588705787
 C          0.4485900966        0.5053498157       -4.9859046905
 C          0.6818273354        1.4853840692       -4.0376826868
 C          0.1956357844        1.2961084187       -2.7520868141
 C          0.2757875008        2.0666923590       -1.5436714014
 C          0.8638531392        3.2802477059       -1.2211145329
 C          0.7253611418        3.7610251249        0.0682165033
 C         -0.0282691325        3.0712358910        1.0157401357
 C         -0.6255226825        1.8611157130        0.7150190381
 C         -0.4208689310        1.3329769279       -0.5522276555
 C         -2.5192862569       -1.5786048908       -0.8653915959
 H         -2.8853912699       -3.9685834527        1.5531686391
 H         -0.8825547883       -2.8349626261        2.4198979278
 H         -1.2713225891       -0.9511731205        3.6386753035
 H         -0.6266290885        0.1518791475        5.7390876940
 H          1.4709384705        1.4104030577        5.9133919373
 H          2.9686683820        1.6484426417        3.9607177685
 H          4.0882422579        1.6164325656        1.4401023436
 H          4.6526486043        1.1209943644       -0.9144488393
 H          3.2907107213       -0.4416334908       -2.2296249078
 H          1.2618429649       -1.4603851017       -1.2782436046
 H         -1.2497578037       -1.7871759378       -3.1409422198
 H         -0.3868661207       -1.4191471871       -5.4129065263
 H          0.8127555447        0.6377993925       -5.9936397404
 H          1.2362453660        2.3771955523       -4.2863221580
 H          1.4162493948        3.8347354246       -1.9640308671
 H          1.1887547385        4.6965631141        0.3425739421
 H         -0.1539835154        3.4890121939        2.0028313205
 H         -1.2338333334        1.3507870542        1.4463185018
 H         -3.0125444082       -1.2087530484       -1.7522450486
  53
        -84.77189251
 N         -5.0953022960       -3.8936542176       -1.0892457797
 C         -4.1772473586       -3.3272138917       -0.6647722934
 C         -3.0578390193       -2.6767046334       -0.1756902179
 C         -2.5178044164       -3.0173931777        1.1180400120
 C         -1.4605227176       -2.3376638947        1.6235672181
 C         -0.8194625200       -1.3089963774        0.8796359333
 N          0.3539344207       -0.7441588382        1.3319070578
 C          0.5672361372       -0.2352807648        2.6013289683
 C         -0.2902079125       -0.1926859874        3.6916241839
 C          0.1591365414        0.4171233602        4.8499386770
 C          1.4335143511        0.9816244333        4.9213298320
 C          2.2793857525        0.9798638878        3.8273750124
 C          1.8486547651        0.3802069697        2.6514838239
 C          2.4308366592        0.2215538842        1.3538309331
 C          3.6479948104        0.5896003601        0.7957512337
 C          3.9272215543        0.2028137151       -0.5023684867
 C          3.0310948637       -0.5794916592       -1.2309522606
 C          1.8107365716       -0.9539105179       -0.6962363869
 C          1.4899578578       -0.5030160357        0.5749363524
 C         -1.3797727744       -0.9447750511       -0.4062306173
 N         -0.8643323462        0.1545995524       -1.0915005783
 C         -0.4634872599        0.1597893610       -2.4126712945
 C         -0.5092419127       -0.8609898736       -3.3531376099
 C          0.0242352129       -0.6116380214       -4.6042119599
 C          0.5934491651        0.6211917478       -4.9166281252
 C          0.6622625902        1.6345691987       -3.9775728492
 C          0.1369492950        1.4067656568       -2.7144406556
 C          0.0638754450        2.1961089240       -1.5162988996
 C          0.4421381226        3.4928945054       -1.2023749421
 C          0.1736211679        3.9716283233        0.0671997775
 C         -0.4878062843        3.1848237601        1.0067548747
 C         -0.8777750790        1.8907890207        0.7140834702
 C         -0.5663417565        1.3880166719       -0.5407465045
 C         -2.4532066132       -1.6316766338       -0.9094474883
 H         -2.9723368211       -3.8283217479        1.6652399603
 H         -1.0326172454       -2.6217591047        2.5730638790
 H         -1.2841181060       -0.6105515398        3.6443010208
 H         -0.4887223244        0.4584413719        5.7118753328
 H          1.7551496521        1.4381248686        5.8454206153
 H          3.2541772084        1.4400102588        3.8799646630
 H          4.3625836852        1.1587587761        1.3703777163
 H          4.8660894149        0.4859575382       -0.9539847141
 H          3.2946934395       -0.9080994585       -2.2242497499
 H          1.1454983643       -1.5987240829       -1.2494884596
 H         -0.9394112963       -1.8230822814       -3.1193693998
 H         -0.0010556661       -1.3887938940       -5.3528323728
 H          0.9933399850        0.7810142948       -5.9066454173
 H          1.1216754319        2.5814442629       -4.2163124322
 H          0.9272116738        4.1150068426       -1.9388828782
 H          0.4620656766        4.9778518297        0.3312239249
 H         -0.7106406114        3.5938493792        1.9804119317
 H         -1.4231934102        1.3038878645        1.4371966940
 H         -2.8956742988       -1.3291396875       -1.8471700224
  53
        -84.77146304
 N         -5.0413286121       -3.9111325130       -1.1262064067
 C         -4.1363654732       -3.3314274291       -0.6920235127
 C         -3.0318540512       -2.6680007825       -0.1866656186
 C         -2.5126578039       -2.9935082864        1.1196889772
 C         -1.4651794420       -2.3061965176        1.6346317103
 C         -0.8122424248       -1.2857488470        0.8887271957
 N          0.3670799909       -0.7356223570        1.3432083727
 C          0.5867332621       -0.2391061463        2.6162255558
 C         -0.2813161143       -0.1639193597        3.6965533789
 C          0.1775212835        0.4277659175        4.8603523020
 C          1.4720863410        0.9419109694        4.9473766740
 C          2.3305453314        0.9065681117        3.8637998947
 C          1.8905479287        0.3249730929        2.6823815854
 C          2.4800818548        0.1459773176        1.3904735010
 C          3.7210040398        0.4582802592        0.8509698206
 C          3.9996007954        0.0643775309       -0.4449773251
 C          3.0747334095       -0.6653703656       -1.1919149178
 C          1.8303930648       -0.9832857635       -0.6763421195
 C          1.5175976184       -0.5326988316        0.5968413518
 C         -1.3580342527       -0.9297049691       -0.4059650299
 N         -0.8450819468        0.1703494080       -1.0903505571
 C         -0.4858213065        0.1877291747       -2.4239963292
 C         -0.5274245147       -0.8337088614       -3.3639225639
 C         -0.0542590527       -0.5629380171       -4.6347242448
 C          0.4539313014        0.6910789620       -4.9668966147
 C          0.5261328669        1.7036589151       -4.0272576862
 C          0.0617546984        1.4539448483       -2.7445740842
 C          0.0045562612        2.2397287015       -1.5434136317
 C          0.3519886005        3.5483235480       -1.2428237326
 C          0.1099077884        4.0208379496        0.0342499754
 C         -0.4968986842        3.2151654321        0.9943754835
 C         -0.8561860196        1.9092478216        0.7149213491
 C         -0.5688549156        1.4129529241       -0.5482433719
 C         -2.4230246012       -1.6243687882       -0.9178453075
 H         -2.9737817298       -3.8000510452        1.6678038039
 H         -1.0511076444       -2.5802287472        2.5931656300
 H         -1.2902025568       -0.5427534729        3.6369646938
 H         -0.4787628633        0.4951636325        5.7142461464
 H          1.7999913274        1.3859397762        5.8753114236
 H          3.3215878729        1.3290991472        3.9282480984
 H          4.4543592395        0.9888658419        1.4387896598
 H          4.9582382884        0.3017493668       -0.8812394669
 H          3.3350749450       -0.9986681498       -2.1845114615
 H          1.1410709674       -1.5868771759       -1.2461940506
 H         -0.9108962048       -1.8120527598       -3.1170255567
 H         -0.0816904854       -1.3393477450       -5.3840328034
 H          0.8045199256        0.8680858087       -5.9725205420
 H          0.9410187346        2.6670378553       -4.2810863555
 H          0.7935459995        4.1837010258       -1.9951885547
 H          0.3772224392        5.0353213447        0.2889207009
 H         -0.7009552072        3.6182299889        1.9746008346
 H         -1.3633435338        1.3101299471        1.4553714600
 H         -2.8572768162       -1.3278631677       -1.8612338672
  53
        -84.77104161
 N         -5.4439608290       -3.4591633465       -0.6198823373
 C         -4.3879738921       -3.0550765855       -0.3680120611
 C         -3.1346082830       -2.5588555899       -0.0468301576
 C         -2.1931883502       -3.3587625126        0.6940596734
 C         -0.9404528889       -2.8959727765        0.9235621882
 C         -0.5261374495       -1.6026852752        0.5034524535
 N          0.7586104147       -1.1829424820        0.7802137406
 C          1.1551599499        0.0661744288        1.2203173986
 C          0.3943992229        1.1011077223        1.7479243082
 C          1.0414651235        2.2699997841        2.1019803477
 C          2.4251725107        2.4005816152        1.9602993629
 C          3.2013969411        1.3454355667        1.5191932225
 C          2.5741316910        0.1585247425        1.1663437393
 C          3.0489997324       -1.1164649657        0.7244601504
 C          4.3152519298       -1.6349067818        0.4851734892
 C          4.4252644282       -2.9291491121        0.0088575133
 C          3.2930498233       -3.6973742692       -0.2558701643
 C          2.0195787032       -3.2024812678       -0.0217823908
 C          1.9016579275       -1.9230715561        0.4981089742
 C         -1.4899766555       -0.7748761655       -0.1933649023
 N         -1.1683357651        0.5101432232       -0.6266169629
 C         -0.0044974430        0.9247029814       -1.2437624379
 C          1.0183953247        0.1727944984       -1.8066661018
 C          2.0908797022        0.8474346608       -2.3589106346
 C          2.1368747012        2.2404260409       -2.3814009282
 C          1.0886261654        2.9959002580       -1.8894554398
 C          0.0035869277        2.3398161620       -1.3282814674
 C         -1.2339980977        2.7909037365       -0.7582950198
 C         -1.7880547863        4.0466047886       -0.5540790655
 C         -3.0184377089        4.1346183131        0.0727693565
 C         -3.6793827004        2.9933831743        0.5181569491
 C         -3.1458495354        1.7304272648        0.3240007218
 C         -1.9327327501        1.6324572514       -0.3414349540
 C         -2.7466178865       -1.2670858740       -0.4519391519
 H         -2.5097339631       -4.3226340768        1.0602483480
 H         -0.2434037538       -3.4818563271        1.5039763323
 H         -0.6706464175        1.0002871793        1.8921438139
 H          0.4669091578        3.0923692351        2.4988706283
 H          2.8951553216        3.3351271198        2.2269964953
 H          4.2747745347        1.4360152305        1.4525759689
 H          5.1934066059       -1.0331584036        0.6621422294
 H          5.4021462653       -3.3497983151       -0.1771132422
 H          3.4066243593       -4.6935672077       -0.6546430426
 H          1.1525762213       -3.8004191507       -0.2560750321
 H          0.9825217671       -0.9057956304       -1.8243335596
 H          2.9056456134        0.2818109683       -2.7841951749
 H          2.9966567065        2.7331798465       -2.8094923525
 H          1.1087069203        4.0737092882       -1.9402197992
 H         -1.2637804260        4.9339817454       -0.8737728696
 H         -3.4703390612        5.1020131972        0.2325186394
 H         -4.6265498747        3.0913783849        1.0261504378
 H         -3.6629531474        0.8569067585        0.6900482849
 H         -3.4406615999       -0.6745020235       -1.0297484271
