99
 energy: -164.674354680984 gnorm: 0.000029246416 xtb: 6.7.1 (edcfbbe)
C            7.27078778690642       -0.20043946820082        1.21021797454371
C            5.93253263374192        0.12070739174064        1.30450378223427
C            4.96322877666930       -0.81871977973026        0.98744886999501
C            5.32012823921918       -2.09215271362701        0.56305652978889
C            6.68073886142701       -2.42113211600974        0.50871255970543
C            7.64286732632720       -1.47885452319148        0.82010559673721
O            7.11968523933129       -3.67553630688954        0.16314765594433
C            6.16745159990138       -4.63462283761670       -0.08386082869536
C            6.61990482153149       -5.90685915247793       -0.37789726610285
C            5.71884918971782       -6.92024389291988       -0.67210777640001
C            4.36653700588950       -6.64657828453142       -0.68341024596493
C            3.90627155890987       -5.37260440232714       -0.38577645677067
C            4.79422485976746       -4.35465922591311       -0.06375508744929
N            4.36785587648056       -3.06061139771151        0.23755205644014
C            3.00223504827240       -2.70976503461205        0.19532912935258
C            2.09742557820385       -3.25159380732806        1.10300351161119
C            0.77877079222009       -2.84310973281555        1.08931741495990
C            0.34604263157788       -1.87711855055021        0.18390147673776
C           -1.03133700919531       -1.37985967381220        0.25381985358159
N           -1.98641584325244       -2.25496766798656        0.45876393401821
C           -3.26283636948182       -1.83368818666885        0.42784940517860
C           -4.31705652496536       -2.74037246761090        0.65717922428591
C           -5.61071165955296       -2.32316918873639        0.53595200587096
C           -5.91390360308124       -0.98762088804009        0.18345365832694
N           -7.26286925728319       -0.61176167154244        0.04081623495888
C           -8.14009948097726       -0.72377618080240        1.12320884658316
C           -7.70402346132975       -1.07329151566677        2.39534406835427
C           -8.59925982432331       -1.17885069214137        3.44885033574851
C           -9.94093130986083       -0.92157472989249        3.25288094443722
C          -10.38612103265990       -0.53288633937923        1.99818401701899
C           -9.49737669849684       -0.42616630940486        0.94448678259004
O          -10.00508444295535       -0.00514133390293       -0.25813104004102
C           -9.12454900239683        0.14300035153703       -1.30037267278316
C           -9.64962711249337        0.58908263147258       -2.49926121312373
C           -8.83493970303170        0.72905392055092       -3.61244751327553
C           -7.49710716013828        0.40382931342271       -3.51894188126834
C           -6.96472574281560       -0.03926611763859       -2.31785793178623
C           -7.76041277262122       -0.15734396877353       -1.18533278924653
C           -4.90401179605945       -0.07686217628570       -0.02239742298768
C           -3.56535009928430       -0.48064527654484        0.10774903377822
N           -2.57407144505240        0.42472549997680       -0.01267860197858
C           -1.33494609499462        0.01532074337064        0.10332374657075
C           -0.27603892743567        1.02958547584061        0.07567201849844
C           -0.34189594653765        2.07162686766024       -0.84614233504256
C            0.69444673653701        2.97707061447594       -0.95671007527788
C            1.80863197464003        2.86202581644995       -0.13127027808127
N            2.90977157951109        3.73166613463006       -0.27654659118876
C            4.14061551273863        3.22306928962732       -0.69714564559877
C            4.29245013366296        1.90670304873864       -1.11331075028038
C            5.52787212352973        1.43170143360594       -1.52648456116243
C            6.62648741869707        2.26588015935210       -1.53751446922545
C            6.48363440681211        3.59229895489765       -1.15645258465307
C            5.25313003002012        4.07278537436361       -0.74959226114053
O            5.17709461496675        5.40339713069406       -0.41899427901113
C            3.94356561268070        5.90196660250347       -0.07614984118029
C            3.86834544494479        7.25330192271436        0.20309828911954
C            2.66342969078470        7.82267243759481        0.58967681950573
C            1.54164631380520        7.02799262197606        0.70745684044257
C            1.61007285759974        5.67188786358830        0.42502606717116
C            2.80265719194301        5.09265100218918        0.01211260530051
C            1.84638071692221        1.86387343333840        0.83949420146170
C            0.81412794261923        0.95670644966581        0.94313792235044
C            1.24316976737665       -1.38315017027751       -0.76361587229339
C            2.55813898861067       -1.79534585786936       -0.75688692336928
H            8.02777797515557        0.53037743763999        1.44576554981810
H            5.63141870203162        1.10655824143562        1.62313805742009
H            3.91883106003203       -0.56095135361490        1.06905221138318
H            8.67986112443488       -1.76723520256615        0.75532190367499
H            7.68366142252267       -6.08318186798408       -0.37928509727942
H            6.08176357666854       -7.91007439296000       -0.89952941872791
H            3.65464013468114       -7.42007866525506       -0.92733931301915
H            2.84785283989526       -5.16600010722428       -0.41447500271890
H            2.43934524650955       -3.97525595940353        1.82804110419344
H            0.07229264848981       -3.24368413506596        1.79991948733990
H           -4.07122381478851       -3.76117186942922        0.90425232467323
H           -6.42722808529264       -3.01389242346108        0.68746708754533
H           -6.65504880989090       -1.25762805179356        2.56731134003469
H           -8.23355049787695       -1.45942018985247        4.42455391358741
H          -10.64211646324611       -1.00654644798573        4.06787759971952
H          -11.42358795043038       -0.30266712505581        1.81594350618014
H          -10.70325555900249        0.81423867851487       -2.54123465119436
H           -9.25293295563433        1.07937677972115       -4.54283752814177
H           -6.85275455612412        0.48831269388689       -4.38043332903430
H           -5.92086394335492       -0.30520717977450       -2.26699581561266
H           -5.11525649629314        0.95223019316372       -0.26846757953534
H           -1.20275586743202        2.14042237680566       -1.49319115792040
H            0.65784342693192        3.76435341649753       -1.69502700757445
H            3.43719432489928        1.24912806674747       -1.11272779993405
H            5.62371516499990        0.40286807282550       -1.83699946267935
H            7.59115232803687        1.89769800690872       -1.84810461553648
H            7.31838584226393        4.27467635374010       -1.17254032767640
H            4.76715856569668        7.84308727563915        0.11969686006688
H            2.61475831655687        8.87838711757457        0.80482212405634
H            0.60159976640210        7.45326437174844        1.02374207329425
H            0.73069404264103        5.05705971527146        0.53667522462224
H            2.69716574311005        1.80354218118711        1.50196569457973
H            0.84566644500635        0.19417616051857        1.70728310075172
H            0.90475316078320       -0.68403220964929       -1.51402481669391
H            3.25753957743515       -1.40697080531270       -1.48240745750978
