99
 energy: -164.675929414835 gnorm: 0.000057489271 xtb: 6.7.1 (edcfbbe)
C            6.45335467424372        1.34811721550963        1.81269654829500
C            5.08527243709524        1.36944291524072        1.98717926701951
C            4.32725769190787        0.23790244683263        1.72586756773361
C            4.92103531565067       -0.93653770063479        1.28380121787415
C            6.30719765148483       -0.93768171383095        1.08271421485488
C            7.06049816819457        0.18958231611875        1.35376257379351
O            6.98267402331773       -2.02863663775130        0.59928494730046
C            6.24276411082414       -3.13968861340769        0.28466821038186
C            6.92668446828590       -4.22402767537719       -0.23258440040471
C            6.25322884854405       -5.39862314492164       -0.53446890206238
C            4.89663712246685       -5.48547773039069       -0.29608252074813
C            4.20511336140358       -4.39864050838632        0.21694425932390
C            4.85867939271657       -3.20349736515279        0.48965692488313
N            4.18459164750869       -2.09724250259377        1.01254974134960
C            2.77488793473340       -2.04091509665691        0.98063225433799
C            2.04940659694922       -1.78513422164423        2.14021568577456
C            0.68214070063059       -1.58533131906491        2.07913998928578
C            0.02298830260152       -1.62853746357239        0.85741591000259
C           -1.36994346010160       -1.17136144514684        0.70362483068260
N           -2.37494408080353       -1.86067602317900        1.16784728358537
C           -3.62042411391850       -1.40905033851839        0.90898842236508
C           -4.73912619081157       -2.11367669320091        1.39428755112611
C           -5.99882404686767       -1.68545822580049        1.08876829630168
C           -6.20156237548415       -0.53982988865861        0.28648387668982
N           -7.51870654045965       -0.13013706258951        0.00616095086339
C           -7.99507637651521        1.11475225746786        0.43247197768101
C           -7.20584494756183        2.01775912063404        1.13328989946044
C           -7.71780901989885        3.23737316686834        1.54911611007969
C           -9.02897844042799        3.57303724786369        1.28010793445016
C           -9.83888898996698        2.67108387805614        0.60703496035923
C           -9.33433260231938        1.45177533393003        0.19388183400725
O          -10.21127440087771        0.60134441534910       -0.43198965776457
C           -9.72281912223264       -0.60442981559720       -0.86636220007676
C          -10.60486628776195       -1.43648247221077       -1.53059158891267
C          -10.17589784722059       -2.65852527618150       -2.02677731345361
C           -8.85551810905166       -3.02930809263256       -1.87291037097301
C           -7.96705211364634       -2.19841949249235       -1.20742035752573
C           -8.38986305275416       -0.98858821036411       -0.67069735319798
C           -5.12525644441175        0.16866953870774       -0.19583857114062
C           -3.82112082101314       -0.24301492796489        0.12064028589885
N           -2.76627630403321        0.48920999230076       -0.30622710637032
C           -1.57192356221991        0.06205540358607       -0.00837991878582
C           -0.36270463827177        0.83366487540718       -0.34985508911581
C            0.11388031670086        0.92148784776315       -1.65131110628506
C            1.37293097263802        1.43822402241864       -1.89868615721975
C            2.16927650916634        1.88299492905726       -0.84779728028135
N            3.50706668996629        2.27196143122414       -1.07286280749984
C            4.45555955087608        1.31422622085435       -1.45599483832112
C            4.10419169281781        0.02652165520984       -1.83758636764199
C            5.06785101868671       -0.89810038681466       -2.21137387299868
C            6.40310344258515       -0.55221888443984       -2.21254648103963
C            6.77325704705174        0.72383713102043       -1.81755929653611
C            5.81634169293275        1.64564407157988       -1.43510525702839
O            6.27199948244926        2.87269536882131       -1.02677866149305
C            5.33757740521478        3.78386351519878       -0.60574335375482
C            5.80694334865860        5.00856994537516       -0.16871837272908
C            4.91991472635178        5.99671623612022        0.23249485343304
C            3.56208312853191        5.75667759362423        0.17361512100535
C            3.08659455941205        4.52794822138953       -0.25847002542753
C            3.96311488444683        3.51561061220576       -0.62838591831932
C            1.64370024319876        1.90123449248332        0.44206956969529
C            0.39728882990860        1.36846101036985        0.68794438471430
C            0.73677280853740       -1.98023583598032       -0.28601916251153
C            2.09552717289396       -2.19911906223576       -0.22499125142103
H            7.04774141289530        2.22466865733189        2.01554687886460
H            4.59603958954893        2.27017998653235        2.32839353880982
H            3.25777555499432        0.27134839984144        1.85527151790049
H            8.12444016963709        0.14190038936352        1.18713246066405
H            7.98989240386401       -4.13091945138879       -0.38621939730404
H            6.79518321023862       -6.23835083902227       -0.94004993744651
H            4.36285372840856       -6.40023492336131       -0.50340864662669
H            3.14754263638760       -4.48155587444446        0.41472897981823
H            2.56615446518935       -1.72205007124899        3.08638869144153
H            0.12605165443777       -1.36210093369601        2.97739463188504
H           -4.56871729702064       -2.98559760587881        2.00596181244729
H           -6.86416086618894       -2.21126598069624        1.46483231708919
H           -6.18366984107192        1.76556378389298        1.36649926920942
H           -7.07845349458954        3.91953781479922        2.08788816391490
H           -9.43061988149266        4.52254179478173        1.59664361793417
H          -10.87338523678593        2.89133318037016        0.39750339709235
H          -11.62408492214939       -1.10650456470005       -1.65248515992308
H          -10.87206014704277       -3.30297703628992       -2.53975299637190
H           -8.50090366200479       -3.96656827983167       -2.27322245689675
H           -6.93338608949663       -2.49212680322816       -1.11132126695603
H           -5.25699845248745        1.04352819888039       -0.81339642323661
H           -0.49109950805976        0.55406903204610       -2.46673877437436
H            1.75414803475942        1.48002677467293       -2.90821889160276
H            3.06533290312324       -0.26026905224748       -1.82990288548233
H            4.76536218655104       -1.89377838642525       -2.50158625457922
H            7.15657122467290       -1.26694462007711       -2.50281776204030
H            7.80819047882391        1.02387744553890       -1.78769205321214
H            6.87275208017488        5.17154129952162       -0.15566532637206
H            5.29587784447493        6.94808534566353        0.57441296460816
H            2.85869960124511        6.52350208301549        0.45980055162245
H            2.02294974699912        4.35528882829831       -0.31589995805070
H            2.23152183591756        2.30738926173401        1.25072926137644
H            0.01244005658277        1.34608352051945        1.69718328582991
H            0.22147113300643       -2.06224390887170       -1.23200266701156
H            2.64520434738256       -2.46394422370650       -1.11497510995848
