99
 energy: -164.626316485882 gnorm: 0.000081093503 xtb: 6.7.1 (edcfbbe)
C            7.28014333336091       -0.37949565038476        1.29750638539816
C            5.94510455854776       -0.03863646696912        1.38499960126038
C            4.96431016306215       -0.95175420514655        1.03271758792129
C            5.30602716037254       -2.22068734788224        0.57957285637112
C            6.66324716995019       -2.56973933224680        0.52852759185104
C            7.63709522845526       -1.65175746466113        0.87598832331426
O            7.08412469939933       -3.81897622861877        0.14850025127210
C            6.12101832888840       -4.74558600279615       -0.16514724446766
C            6.55412059549869       -6.01008781916584       -0.51796394877928
C            5.63785930466182       -6.98836036183270       -0.87520353506419
C            4.28979484490123       -6.68876457309687       -0.88953453063197
C            3.84852613279531       -5.42384097187806       -0.53473047654755
C            4.75205093358374       -4.43972978591721       -0.15195762307001
N            4.34484988719479       -3.15978197005408        0.21264955250487
C            2.98231489354475       -2.78037284703613        0.16160832868604
C            2.05954304679726       -3.31315360446795        1.05525054708046
C            0.75032470825181       -2.87558838501799        1.03715580719045
C            0.34490093851487       -1.88605487987985        0.14164119846356
C           -1.01645778163564       -1.35883052924279        0.19511114126848
N           -2.02511696222641       -2.21496051177250        0.34419865179509
C           -3.29469013891161       -1.79904452883115        0.29828733507225
C           -4.36716719164322       -2.67385330764133        0.45975205271056
C           -5.67379905784002       -2.22668820305261        0.35102112491052
C           -5.93207428697209       -0.88909389058458        0.08632324870305
N           -7.27164549558560       -0.43846307436354       -0.03192480800485
C           -8.11238615969905       -0.43052658483612        1.07373485424151
C           -7.67196409801025       -0.79634030392496        2.34166391304539
C           -8.53745273115988       -0.77863742253507        3.42254906865918
C           -9.85363425066851       -0.38945508737566        3.25966590856790
C          -10.30364522666392        0.00014923250528        2.00737937623600
C           -9.44435095287376       -0.01318393874544        0.92386861704172
O           -9.94835628398518        0.40601939887349       -0.27999029309363
C           -9.09999650672844        0.40771323566796       -1.35683283381119
C           -9.61617115051340        0.83679052323797       -2.56594412137125
C           -8.82006682604636        0.84433263062351       -3.70118123403126
C           -7.51077125455547        0.40926947488314       -3.62070574529726
C           -6.98675390494116       -0.02087957581210       -2.41307359521005
C           -7.76481608469041       -0.01521802769892       -1.25978119304093
C           -4.88394675247402        0.01854527306745       -0.06170158915794
C           -3.56487293338447       -0.40499729412355        0.04252436337961
N           -2.53549647697833        0.44779966473415       -0.04700674451895
C           -1.28037311702066        0.01905106181484        0.06642544088499
C           -0.20138575510919        1.00388659061942        0.06153182939735
C           -0.21932549275480        2.06371374886300       -0.84519674755250
C            0.84201533114518        2.94354632959439       -0.91856264669031
C            1.93332464397862        2.78779669840665       -0.07075983008168
N            3.06388235289530        3.63243926797320       -0.18034560975241
C            4.28016816192905        3.10093644178574       -0.60264959348053
C            4.39661951866093        1.79251975894671       -1.05724154111519
C            5.62247548994830        1.29233994518017       -1.46596735318838
C            6.74818917002264        2.09101017987863       -1.43393892409154
C            6.64326346523813        3.40782359507290       -1.01107561561930
C            5.42194313201609        3.91505402141838       -0.60759377861068
O            5.38291243632541        5.23320588681201       -0.22922033708274
C            4.16709832059988        5.75179129402470        0.14159600252760
C            4.13286940296463        7.08805276509420        0.49396406042743
C            2.94416589953013        7.67170944955331        0.90697141249128
C            1.79618448960346        6.90722115788006        0.97686011140061
C            1.82282099424758        5.56761556132438        0.62262641168726
C            3.00064780400158        4.97384469081250        0.18517447036262
C            1.92456420033537        1.77761838057682        0.88769523323569
C            0.86724953397261        0.89819080526930        0.95620693326290
C            1.26245598102545       -1.40811112591506       -0.79793610198070
C            2.56737476419798       -1.84749199892933       -0.78529834318090
H            8.04554439199129        0.33246589538919        1.56177475712395
H            5.65734938815866        0.94356503166081        1.72636433104679
H            3.92315424706134       -0.68020810526226        1.10727545795494
H            8.67015283578701       -1.95436525782139        0.81379010857148
H            7.61410147772188       -6.20764035786871       -0.51295885755484
H            5.98469048077502       -7.97249481960367       -1.14773800555356
H            3.56813156915847       -7.43654615307406       -1.18006246913042
H            2.79499816234699       -5.19404580559114       -0.56207402174957
H            2.37944232965121       -4.05429083786505        1.77303878640216
H            0.03215179891507       -3.27232195096284        1.73823533365673
H           -4.15510499998383       -3.71386531880362        0.64920697601106
H           -6.49571411716493       -2.91730218841617        0.46528905411237
H           -6.64351509139529       -1.09113731018523        2.47763806592574
H           -8.17256275545500       -1.06999391881766        4.39537037300234
H          -10.53065190024745       -0.37857551086695        4.09911537815222
H          -11.32051530572421        0.32238239998171        1.84997711172123
H          -10.64532030553855        1.15685247342257       -2.59815226656775
H           -9.22970947048740        1.18174557801086       -4.64008030196799
H           -6.88598031723938        0.39831006512488       -4.50044765172244
H           -5.96744213771219       -0.36855742305107       -2.36045304852009
H           -5.08625380494571        1.06317340389763       -0.23819855994743
H           -1.06205687904137        2.16783165360179       -1.51123359964121
H            0.84137211774886        3.74322714702074       -1.64477442972880
H            3.52029083929214        1.16450103817162       -1.08833518978365
H            5.69154659319280        0.27132179859463       -1.80773861762795
H            7.70508386456744        1.70132110217658       -1.74227162581944
H            7.50017739591604        4.06200131848410       -0.99091501031547
H            5.04945314607229        7.65377184247154        0.44438668746806
H            2.92652636831188        8.71518279831774        1.17889953257853
H            0.86856218708730        7.34580365767521        1.31084050826187
H            0.92482514261382        4.97418473007828        0.69292422479676
H            2.75691589762952        1.68965832259685        1.57064728726123
H            0.86099902964988        0.12475841970513        1.70952973247993
H            0.94438211499612       -0.69346178413322       -1.54215201320951
H            3.28066034970464       -1.47028712184955       -1.50357050973394
