47
 energy: -71.415458051594 gnorm: 0.000038248515 xtb: 6.7.1 (edcfbbe)
C           -1.15320986806094       -2.70840577382448        1.12229759332220
C           -0.51523080003787       -1.93322538811605       -0.06008503934927
C           -0.93833151074255       -2.48729302285179       -1.43972037046846
C            0.98724360545183       -2.14884357681842        0.01240070749825
C            1.47951854581030       -3.44670313332754        0.04188568468428
C            2.83618653948925       -3.71149338726497        0.07117925647410
C            3.73269468385562       -2.65771265474646        0.06847322760414
C            3.26854623167963       -1.35920397752205        0.04253952917150
C            1.89708695531746       -1.09251861335556        0.01574759932236
N            1.43949333124568        0.21363604235131       -0.00719076556851
C            2.40137667661958        1.26414932363098       -0.01318973638870
C            2.82818405154219        1.80354125133210       -1.21982588553011
C            3.77302080415671        2.81448264257097       -1.22530287580227
C            4.29388563116669        3.28574077060751       -0.03167189117995
C            3.86960834970153        2.74599904724578        1.17145723780318
C            2.92443974957567        1.73582666807065        1.18451268741364
C            0.09071949386290        0.51986335026094        0.01607906248618
C           -0.25981764677082        1.89046429783279        0.05982598959972
C           -1.55947052599835        2.28233360016831        0.07703028851249
C           -2.59325498510575        1.32741356579350        0.05200372206806
C           -3.93628636298286        1.75122806436835        0.06224283252399
C           -4.93615829432399        0.82636933972280        0.03471634203302
F           -6.22967307914759        1.22379101743306        0.04340615331941
C           -4.65370709106781       -0.54185687826230       -0.00223262378760
C           -3.35370059625446       -0.96353471947572       -0.01022940103821
C           -2.26192762068651       -0.05805235208406        0.01508884691762
C           -0.89344829027106       -0.45878364143050        0.00197213742624
H           -1.80113833410099       -2.06597852070983        1.71182842834145
H           -0.37554630121138       -3.07669216618444        1.78847008699490
H           -1.72872024877795       -3.56443257043577        0.77748645817328
H           -0.78701028141291       -3.56288596367850       -1.48315148943196
H           -1.97452426483734       -2.26898708128389       -1.67471664193439
H           -0.32014202826253       -2.02844161553930       -2.21024961688352
H            0.78635823066489       -4.27442625809178        0.04363167761133
H            3.18876427523805       -4.73135318724407        0.09249753442966
H            4.79616954616092       -2.84382545468826        0.08735343802275
H            3.97270731502768       -0.54141212433532        0.04106690588567
H            2.41495240971455        1.42709781515123       -2.14389824294815
H            4.10398198957806        3.23392087704020       -2.16361574978157
H            5.03168910638680        4.07390925109301       -0.03883091117118
H            4.27575773556792        3.11237615830660        2.10245310797993
H            2.58609683501667        1.30581015283016        2.11570446117634
H            0.52442002953979        2.63093430554029        0.07989436363076
H           -1.81425902848130        3.33114471277385        0.10915410581910
H           -4.16388947544355        2.80560936011745        0.09107742496778
H           -5.46962130126995       -1.24749096848505       -0.02300880900065
H           -3.18195537239868       -2.02381751377656       -0.03338563568763
