47
 energy: -71.331299634423 gnorm: 0.000032636878 xtb: 6.7.1 (edcfbbe)
C           -1.14854747857162       -2.71373259442397        1.13309822414828
C           -0.51434922793394       -1.92042129954510       -0.04132780148112
C           -0.93307309680771       -2.47116998656012       -1.42924280416993
C            0.97971257123632       -2.14533784960840        0.02044797379986
C            1.47302242160985       -3.44226189648795        0.04909526748580
C            2.83006844163361       -3.70586759676104        0.06312350412021
C            3.73203460998177       -2.64931048663469        0.04211994006170
C            3.27328238171296       -1.35393323208985        0.01810096516495
C            1.89463807628488       -1.08285429428047        0.01253465919266
N            1.44318679226376        0.21492422519394        0.00593091112268
C            2.41423165402978        1.25985986196804       -0.00793006409146
C            2.84195864413631        1.78681818670444       -1.21880706684616
C            3.79058858352225        2.79441506122943       -1.22967422546945
C            4.31009941710281        3.27368024886186       -0.03852701449046
C            3.88133113449712        2.74568851374791        1.16806371617800
C            2.93327702686588        1.73792252314016        1.18805859310910
C            0.11434253262699        0.56459369563442        0.03464135510614
C           -0.23438887971136        1.90101411294252        0.07916170220406
C           -1.56439471023382        2.28664822983430        0.09828039765284
C           -2.60348211368314        1.32714563145720        0.06100737177179
C           -3.93164372439054        1.74255402919095        0.06500044873899
C           -4.96565606035698        0.79050498285843        0.02241082749542
F           -6.24479543772914        1.23215519910036        0.02831105534940
C           -4.70059136334036       -0.54564984928837       -0.02434544581511
C           -3.36019423511050       -0.97461196222554       -0.02699112902126
C           -2.27663895580959       -0.06900843497502        0.01668734854822
C           -0.91461065736409       -0.46625037180245        0.02012908828805
H           -1.89843589252552       -2.12151462090796        1.64784591717922
H           -0.38217325124768       -2.97172039626593        1.86143178201158
H           -1.60921721139489       -3.63517034148562        0.78601246249048
H           -0.78228876395282       -3.54638438521167       -1.47740834038995
H           -1.97011217918644       -2.24680081241781       -1.65427277573885
H           -0.31656849389356       -2.00625962293471       -2.19727259315506
H            0.78067055975603       -4.26992667594571        0.06486173998116
H            3.18399336711467       -4.72479439809431        0.08699848966241
H            4.79439545822003       -2.84092401034822        0.04631718047876
H            3.97756136182157       -0.53671052328900        0.00360308152303
H            2.42763953539066        1.40587651393927       -2.14023424530027
H            4.12378927699040        3.20522419729121       -2.17067804200556
H            5.04947276034132        4.06005424945037       -0.05051944231604
H            4.28488642387958        3.11888766838305        2.09714845258374
H            2.58932446304477        1.31835080933654        2.12158922348871
H            0.53071321967012        2.66096083892153        0.09974598290948
H           -1.82042309729526        3.33336538855816        0.13578903259576
H           -4.17726447550889        2.79149544692063        0.09994851137397
H           -5.50083455140990       -1.26719160870535       -0.05732417905477
H           -3.20271366337183       -2.03612840571176       -0.05979503213780
