47
 energy: -71.331300421535 gnorm: 0.000036526334 xtb: 6.7.1 (edcfbbe)
C           -1.16451010131018       -2.72734482855798        1.09942834144976
C           -0.51540878447746       -1.91969767261433       -0.05652869390035
C           -0.91775242249673       -2.45220432813198       -1.45651282841566
C            0.97774721455748       -2.14718141147168        0.01715086335498
C            1.46912701745933       -3.44485348404539        0.04480582548550
C            2.82578374444465       -3.71037453503827        0.06103804488622
C            3.72928234790643       -2.65515241239112        0.04001622938898
C            3.27244071550548       -1.35907193542310        0.01642511726361
C            1.89424091872256       -1.08597444899724        0.01297766130380
N            1.44423834468870        0.21236018133873        0.01097470140289
C            2.41576772073284        1.25656918977325       -0.01112601626883
C            2.81333338556125        1.80037375619381       -1.22477514012936
C            3.76279170755972        2.80697333235751       -1.24553895056219
C            4.31310699145108        3.26874928999516       -0.06127437135636
C            3.91421591652237        2.72422386294677        1.14818697411622
C            2.96559300870172        1.71726082224612        1.17805143132582
C            0.11592558985296        0.56311065664234        0.05051874036206
C           -0.23077906091848        1.89892700436960        0.12109304142209
C           -1.56020069716607        2.28605942762125        0.14710118262085
C           -2.60062385069888        1.32921705180280        0.08535096048605
C           -3.92813670450934        1.74659888531554        0.09358130912007
C           -4.96348135765396        0.79747280730286        0.02631825172936
F           -6.24194211448290        1.24097451704379        0.03760989933876
C           -4.70032801489127       -0.53776262228783       -0.04941852136898
C           -3.36063560801200       -0.96875308665525       -0.05607542770246
C           -2.27582710092998       -0.06629154923241        0.01340661019282
C           -0.91450171111937       -0.46589592838413        0.01918477979247
H           -0.40820758065136       -2.99130957043773        1.83606511302688
H           -1.61784866188361       -3.64587695689016        0.73535866833596
H           -1.92346706366335       -2.14278640966199        1.60958553517397
H           -1.95379525984463       -2.23060816640331       -1.68858721235338
H           -0.29654344232169       -1.97268306323960       -2.21168593977615
H           -0.75986810709573       -3.52573649282429       -1.51851254740561
H            0.77562551863507       -4.27161363845175        0.05698056756664
H            3.17822602926554       -4.72981413282670        0.08492529363472
H            4.79136102354582       -2.84833024690730        0.04342017520796
H            3.97797401154733       -0.54297178051662        0.00068021802236
H            2.37502084415185        1.43318355414198       -2.14066405616388
H            4.07268483466201        3.23059978278619       -2.18880784025669
H            5.05318413923563        4.05429478251259       -0.08092697072455
H            4.34163368528034        3.08391345541737        2.07192138030574
H            2.64495800611476        1.28479613089517        2.11400564434559
H            0.53558068758918        2.65701489302063        0.15773781873455
H           -1.81479254176197        3.33207951235297        0.20708339224920
H           -4.17223526355666        2.79488970718820        0.15135871949378
H           -5.50156330170202       -1.25704024505639       -0.10198669451669
H           -3.20468785627499       -2.02947888510234       -0.11344937855836
