  99
       -158.01858194
 C          7.2247362780       -4.7894310389        0.5084818139
 C          5.8388466879       -4.7953018307        0.4489428909
 C          5.1446565830       -3.6092415231        0.3237984883
 C          5.8343727820       -2.3983155742        0.2555785842
 C          5.1051408395       -1.1419940691        0.1212346474
 N          5.8157861824       -0.0047810549       -0.0023188701
 C          5.1134635496        1.1363453431       -0.1348737708
 C          5.8541652292        2.3872298946       -0.2587082615
 C          7.2480543368        2.3752607596       -0.3055195133
 C          7.9475497260        3.5600384679       -0.4199378175
 C          7.2682280423        4.7666565126       -0.4869612605
 C          5.8820438223        4.7847976325       -0.4397257946
 C          5.1760078579        3.6045777118       -0.3267569666
 N          3.8070364296        1.1690513593       -0.1569452872
 C          3.1263570661        0.0039607055       -0.0174994205
 C          1.7107718576        0.0057506148       -0.0199229483
 C          0.9858570559        1.1972542058       -0.2399664399
 C         -0.3892496394        1.1980846692       -0.2411174299
 N         -1.0901416909        2.3968999269       -0.4650732409
 C         -2.1376347968        2.5729185532       -1.3438066043
 C         -2.5635146557        1.7533653052       -2.3791671920
 C         -3.6600890485        2.1608143719       -3.1136776633
 C         -4.3024057606        3.3675265340       -2.8486027842
 C         -3.8441871216        4.2160478603       -1.8578292691
 C         -2.7491396646        3.8244966999       -1.1027483303
 C         -2.0072742707        4.4391031838       -0.0361606945
 C         -2.1225411070        5.6454258083        0.6380673465
 C         -1.2260204083        5.9255486577        1.6526222527
 C         -0.2307549969        5.0159049933        2.0027392719
 C         -0.0975561466        3.8062067101        1.3482554128
 C         -0.9870676975        3.5262252605        0.3197519527
 C         -1.1124513950        0.0051501974       -0.0105759853
 N         -2.5147740828        0.0028739653       -0.0033611938
 C         -3.3192683726        0.7678772773        0.8137104286
 C         -2.9637048905        1.6495219368        1.8250837368
 C         -3.9780868557        2.3010298728        2.4984187462
 C         -5.3169197372        2.0661675860        2.1951976346
 C         -5.6771881908        1.1521005467        1.2224255527
 C         -4.6758876223        0.4918164667        0.5271727233
 C         -4.6781798173       -0.5050658628       -0.5066474521
 C         -5.6822463844       -1.1726777370       -1.1909149832
 C         -5.3261328451       -2.0805765008       -2.1710288474
 C         -3.9892326515       -2.3022379721       -2.4922113566
 C         -2.9723515474       -1.6438103704       -1.8294713405
 C         -3.3230204125       -0.7686888914       -0.8107222948
 C         -0.3868507179       -1.1876045660        0.2130332289
 N         -1.0855439023       -2.3861282270        0.4454889752
 C         -0.9956659519       -3.5152457292       -0.3405570717
 C         -0.1248330652       -3.7939713558       -1.3852336902
 C         -0.2694068459       -5.0033162904       -2.0379039444
 C         -1.2577243570       -5.9136182306       -1.6699755800
 C         -2.1346086517       -5.6354225455       -0.6378914802
 C         -2.0074024001       -4.4296379520        0.0352050910
 C         -2.7277024612       -3.8169102093        1.1176202297
 C         -3.8033948430       -4.2119241366        1.8983426080
 C         -4.2404678401       -3.3650203598        2.9001851995
 C         -3.5968725872       -2.1556691338        3.1495292249
 C         -2.5198703468       -1.7441354326        2.3888107457
 C         -2.1145155958       -2.5635658458        1.3451480704
 C          0.9877103421       -1.1865879645        0.2018331871
 N          3.7986111899       -1.1650349108        0.1279553517
 C          7.2278364351       -2.3987720316        0.3145152832
 C          7.9155057213       -3.5893541944        0.4410721746
 H          7.7649106507       -5.7194929042        0.6068946221
 H          5.3009651655       -5.7309172351        0.4999151034
 H          4.0667737168       -3.5981443213        0.2748156183
 H          7.7612791715        1.4278547504       -0.2519528809
 H          9.0269142931        3.5467026715       -0.4562878803
 H          7.8176416419        5.6922737253       -0.5756653627
 H          5.3532899166        5.7254863549       -0.4913032835
 H          4.0977802989        3.6030520461       -0.2875902832
 H          1.5311447744        2.1048481156       -0.4410650389
 H         -2.0522436650        0.8331585910       -2.6132288168
 H         -4.0231575625        1.5310022834       -3.9119753977
 H         -5.1602961074        3.6495619879       -3.4402903132
 H         -4.3247528908        5.1652281255       -1.6756523974
 H         -2.8997441530        6.3470343096        0.3760885035
 H         -1.2977696412        6.8603871843        2.1880693333
 H          0.4502261223        5.2607095760        2.8042259434
 H          0.6697165736        3.1019179217        1.6314006043
 H         -1.9315587661        1.8200179853        2.0898049828
 H         -3.7260997243        3.0040886323        3.2783513629
 H         -6.0822646530        2.5971168449        2.7411647433
 H         -6.7160836549        0.9526547639        1.0079644446
 H         -6.7201216386       -0.9834820271       -0.9626375112
 H         -6.0935379257       -2.6170056494       -2.7087423233
 H         -3.7409156883       -2.9994738100       -3.2784846587
 H         -1.9421213103       -1.8033005177       -2.1081632308
 H          0.6368853341       -3.0888900630       -1.6813247316
 H          0.3967519427       -5.2474555375       -2.8520210228
 H         -1.3392137147       -6.8479126465       -2.2049742860
 H         -2.9053953688       -6.3385382013       -0.3612028254
 H         -4.2856205079       -5.1622825873        1.7271904887
 H         -5.0822000035       -3.6505757078        3.5129856040
 H         -3.9432180716       -1.5271349390        3.9563248226
 H         -2.0068236235       -0.8216057572        2.6096663012
 H          1.5346066160       -2.0942286050        0.3983637105
 H          7.7500804245       -1.4561971226        0.2618757392
 H          8.9946909781       -3.5856556809        0.4877225618
  99
       -158.01841642
 C          7.2465256147       -4.6937496254        1.0312238785
 C          7.9314990078       -3.5092911312        0.8089874577
 C          7.2374057208       -2.3456821527        0.5431492024
 C          5.8434630081       -2.3569053395        0.4981343726
 C          5.1081410577       -1.1257480333        0.2284021575
 N          5.8150325735       -0.0039758172       -0.0051661663
 C          5.1090402216        1.1182618354       -0.2420665588
 C          5.8447776604        2.3476391125       -0.5159244443
 C          5.1610511592        3.5390291149       -0.7607300000
 C          5.8620346623        4.6968081530       -1.0297495660
 C          7.2488845922        4.6819637074       -1.0581627181
 C          7.9338001124        3.5014885274       -0.8144859522
 C          7.2392512288        2.3391776661       -0.5444378521
 N          3.8025206454        1.1481514908       -0.2430295503
 C          3.1254313357       -0.0024972392       -0.0048419805
 C          1.7098963156       -0.0012543137       -0.0018162882
 C          0.9861015555        1.1935872995       -0.2068668690
 C         -0.3887762470        1.1974414125       -0.2007100295
 N         -1.0862815287        2.4051760729       -0.3848106783
 C         -2.1340038899        2.6168669435       -1.2548569190
 C         -2.5639964150        1.8368826698       -2.3188189488
 C         -3.6578218357        2.2766285906       -3.0388038150
 C         -4.2941767018        3.4762020591       -2.7302160252
 C         -3.8330470715        4.2854430292       -1.7081494919
 C         -2.7403190598        3.8613347939       -0.9675227844
 C         -1.9967657530        4.4325425319        0.1217276100
 C         -2.1083728642        5.6121967492        0.8420669994
 C         -1.2114006251        5.8499477414        1.8669651435
 C         -0.2187403073        4.9246587152        2.1816527616
 C         -0.0889864201        3.7409726171        1.4806952588
 C         -0.9795375733        3.5035883166        0.4424180321
 C         -1.1139180541        0.0007876923        0.0024527256
 N         -2.5165085683        0.0012902641        0.0025507744
 C         -3.3225984495        0.7457697407        0.8367286681
 C         -2.9689260974        1.5931610454        1.8775795535
 C         -3.9842019909        2.2305171803        2.5629943025
 C         -5.3221049563        2.0142828718        2.2423547974
 C         -5.6808968855        1.1329729682        1.2392866294
 C         -4.6786160888        0.4872518937        0.5317954672
 C         -4.6789010218       -0.4784632680       -0.5312739156
 C         -5.6816418738       -1.1204086215       -1.2416023124
 C         -5.3233837235       -2.0020642487       -2.2445610509
 C         -3.9853852181       -2.2225069955       -2.5620611691
 C         -2.9695662673       -1.5892745668       -1.8734597395
 C         -3.3229647067       -0.7411210331       -0.8331441374
 C         -0.3898806779       -1.1966429423        0.2047648252
 N         -1.0887110708       -2.4031657876        0.3921134370
 C         -0.9841823506       -3.5039550254       -0.4323272507
 C         -0.0951803847       -3.7451431069       -1.4709572308
 C         -0.2265646229       -4.9309685093       -2.1681022680
 C         -1.2195590697       -5.8545922324       -1.8496405149
 C         -2.1151564457       -5.6131133477       -0.8245473601
 C         -2.0017920013       -4.4312681113       -0.1077429689
 C         -2.7433978487       -3.8563684900        0.9810406252
 C         -3.8355594261       -4.2774652666        1.7244403842
 C         -4.2944065847       -3.4650787062        2.7448158737
 C         -3.6560891210       -2.2656289640        3.0495463039
 C         -2.5627183023       -1.8289663445        2.3270809231
 C         -2.1352933746       -2.6117913867        1.2643460336
 C          0.9850119398       -1.1947589380        0.2069281373
 N          3.8015410624       -1.1551893930        0.2301720364
 C          5.1598010945       -3.5523954755        0.7213158740
 C          5.8603488454       -4.7116094588        0.9850775569
 H          7.7914356827       -5.6024491343        1.2402623055
 H          9.0110574987       -3.4963005323        0.8443334341
 H          7.7550321391       -1.4152932142        0.3692821335
 H          4.0822931372        3.5345254737       -0.7374591599
 H          5.3288064543        5.6172740238       -1.2188313271
 H          7.7942648200        5.5894893846       -1.2709149055
 H          9.0137400365        3.4906887239       -0.8368198968
 H          7.7568794279        1.4116977204       -0.3551481141
 H          1.5320519214        2.1042551582       -0.3915908476
 H         -2.0575537419        0.9227032035       -2.5851831548
 H         -4.0234481783        1.6783781077       -3.8600113356
 H         -5.1498774427        3.7842182719       -3.3120629597
 H         -4.3101134639        5.2289274621       -1.4905422989
 H         -2.8833556565        6.3258877688        0.6075295792
 H         -1.2805617650        6.7634363330        2.4384083306
 H          0.4630061384        5.1363038072        2.9919416537
 H          0.6761496365        3.0238123056        1.7361908826
 H         -1.9376318554        1.7476252062        2.1552007223
 H         -3.7337482569        2.9069704851        3.3665646382
 H         -6.0881517655        2.5335584748        2.7984721031
 H         -6.7194322891        0.9474688713        1.0110339003
 H         -6.7201069525       -0.9317385070       -1.0155769335
 H         -6.0898453650       -2.5181657614       -2.8031115858
 H         -3.7352784535       -2.8990827774       -3.3656427692
 H         -1.9380671095       -1.7472764096       -2.1484712123
 H          0.6701627995       -3.0293798418       -1.7294312732
 H          0.4541602145       -5.1456355280       -2.9784172681
 H         -1.2898590106       -6.7698324000       -2.4180160172
 H         -2.8900173850       -6.3258157915       -0.5867369251
 H         -4.3139727307       -5.2209861433        1.5101308351
 H         -5.1496617355       -3.7705654101        3.3285130384
 H         -4.0197972427       -1.6649961726        3.8697672177
 H         -2.0547132006       -0.9149353386        2.5906046454
 H          1.5303098982       -2.1058353728        0.3914029863
 H          4.0815466354       -3.5502781405        0.6847400512
 H          5.3270868736       -5.6350454511        1.1592997794
  99
       -158.01829403
 C          7.2345574503       -4.6668220448        1.1598713606
 C          7.9227973618       -3.4937569315        0.8910776998
 C          7.2316757607       -2.3365456003        0.5917582588
 C          5.8373226042       -2.3427297975        0.5593104295
 C          5.1047376408       -1.1183948941        0.2554900953
 N          5.8128843211       -0.0036926824       -0.0079130826
 C          5.1083227860        1.1134745424       -0.2695560907
 C          5.8467446019        2.3325386154       -0.5819765811
 C          7.2406225177        2.3153997671       -0.6279675460
 C          7.9379848407        3.4657931081       -0.9388292499
 C          7.2563766282        4.6432478805       -1.2052652963
 C          5.8702175609        4.6670155494       -1.1584583216
 C          5.1664585107        3.5209203610       -0.8493598194
 N          3.8018090457        1.1474718610       -0.2640999584
 C          3.1234964003        0.0023121689       -0.0016703640
 C          1.7077969648        0.0032444897        0.0011460650
 C          0.9826411638        1.1975198920       -0.2006927775
 C         -0.3923672912        1.2004031622       -0.1912929897
 N         -1.0896743263        2.4100383781       -0.3632139767
 C         -2.1431087828        2.6304658082       -1.2242899778
 C         -2.5830962011        1.8593606419       -2.2905182771
 C         -3.6825425611        2.3058032777       -2.9976432192
 C         -4.3142882743        3.5041402001       -2.6753120142
 C         -3.8424682689        4.3057568799       -1.6522591824
 C         -2.7441520653        3.8745115228       -0.9240386195
 C         -1.9897339454        4.4375924659        0.1621248338
 C         -2.0907191552        5.6147701622        0.8883573115
 C         -1.1838681454        5.8450545940        1.9061789784
 C         -0.1926324309        4.9142737807        2.2087202571
 C         -0.0738292922        3.7326842393        1.5021440490
 C         -0.9730394561        3.5035338243        0.4695848345
 C         -1.1162248130        0.0018110067        0.0053443098
 N         -2.5188059398        0.0007663837        0.0068662137
 C         -3.3248544984        0.7384204310        0.8471187236
 C         -2.9710322090        1.5788225089        1.8936519890
 C         -3.9864722294        2.2091844298        2.5853137664
 C         -5.3244797181        1.9931750939        2.2647684593
 C         -5.6831901435        1.1189291433        1.2554626453
 C         -4.6808535207        0.4800715393        0.5419900801
 C         -4.6811245380       -0.4775855014       -0.5282533289
 C         -5.6837737845       -1.1152147031       -1.2424277616
 C         -5.3255241978       -1.9890508947       -2.2522884227
 C         -3.9876326958       -2.2055276655       -2.5728956750
 C         -2.9719462289       -1.5761787200       -1.8807053078
 C         -3.3252769871       -0.7363967972       -0.8335041126
 C         -0.3906398233       -1.1960304056        0.1999672250
 N         -1.0864042218       -2.4062340214        0.3735880694
 C         -0.9745623361       -3.4977307613       -0.4624393477
 C         -0.0795849360       -3.7253322572       -1.4990753900
 C         -0.2041164865       -4.9038927567       -2.2097259359
 C         -1.1964781340       -5.8334289277       -1.9067206352
 C         -2.0983153098       -5.6050982751       -0.8839543560
 C         -1.9915879208       -4.4309466929       -0.1536699684
 C         -2.7404570883       -3.8699993153        0.9372912380
 C         -3.8359441611       -4.3019143184        1.6693120089
 C         -4.3025985320       -3.5021465052        2.6961579974
 C         -3.6687983658       -2.3047828659        3.0181724081
 C         -2.5724133162       -1.8573540747        2.3069581770
 C         -2.1371287669       -2.6271339059        1.2377817473
 C          0.9842075966       -1.1917803301        0.2053507021
 N          3.7981683141       -1.1454080148        0.2566403648
 C          5.1502416603       -3.5266384783        0.8296480319
 C          5.8477870256       -4.6793790215        1.1275332939
 H          7.7773269379       -5.5705617437        1.3946881652
 H          9.0026485218       -3.4846301977        0.9170718627
 H          7.7518938740       -1.4149415222        0.3820690936
 H          7.7554554384        1.3904026486       -0.4201322671
 H          9.0174041238        3.4478062269       -0.9758151529
 H          7.8038715261        5.5414936273       -1.4499251491
 H          5.3395681913        5.5850044493       -1.3661763658
 H          4.0881229237        3.5234538959       -0.8115972788
 H          1.5274042707        2.1095860183       -0.3820967068
 H         -2.0804369016        0.9465448442       -2.5681306296
 H         -4.0561731108        1.7138733801       -3.8197467861
 H         -5.1746165878        3.8174745698       -3.2473251415
 H         -4.3155245419        5.2488110375       -1.4244313866
 H         -2.8644856011        6.3327131950        0.6629974488
 H         -1.2438247636        6.7568951647        2.4811921052
 H          0.4966959478        5.1196881614        3.0141582535
 H          0.6901413655        3.0113674694        1.7489466617
 H         -1.9395073359        1.7334939354        2.1705666131
 H         -3.7361104473        2.8800754214        3.3936141219
 H         -6.0906414944        2.5071537094        2.8256903475
 H         -6.7217069163        0.9337873339        1.0267766797
 H         -6.7222058822       -0.9290930682       -1.0141804525
 H         -6.0919349117       -2.5019227397       -2.8138966327
 H         -3.7374743286       -2.8758504566       -3.3817112867
 H         -1.9405751019       -1.7307302379       -2.1581981106
 H          0.6851846757       -3.0048649038       -1.7461524376
 H          0.4813547293       -5.1077916199       -3.0188445921
 H         -1.2613910253       -6.7426581552       -2.4854428583
 H         -2.8727492899       -6.3221493125       -0.6579642526
 H         -4.3109245521       -5.2439944756        1.4412793829
 H         -5.1604997876       -3.8162160322        3.2714727741
 H         -4.0386215802       -1.7142860856        3.8430335940
 H         -2.0683454885       -0.9449496072        2.5836360909
 H          1.5304646375       -2.1032554161        0.3849690928
 H          4.0715694991       -3.5201636329        0.8032300888
 H          5.3118840059       -5.5938423459        1.3370995407
  99
       -158.01818334
 C          7.2557487112       -4.6264275658        1.2794595717
 C          7.9390584079       -3.4611142377        0.9677581024
 C          7.2427603877       -2.3162740064        0.6348063911
 C          5.8482077823       -2.3270775131        0.6113807546
 C          5.1110522957       -1.1137296495        0.2757383720
 N          5.8165006266       -0.0019904090       -0.0065828122
 C          5.1092530252        1.1073394973       -0.2934279179
 C          5.8440193745        2.3218191927       -0.6302878841
 C          5.1593704914        3.4890347881       -0.9700828223
 C          5.8597593927        4.6306456919       -1.3024666507
 C          7.2468935959        4.6235646797       -1.3001021751
 C          7.9326842217        3.4672785607       -0.9614561246
 C          7.2387307851        2.3212028292       -0.6280411678
 N          3.8026997877        1.1370281211       -0.2910076367
 C          3.1271492700       -0.0050646698       -0.0094648159
 C          1.7113330410       -0.0046954493       -0.0068831232
 C          0.9879420757        1.1917126167       -0.2037139555
 C         -0.3868570748        1.1971832421       -0.1922673470
 N         -1.0831609904        2.4089165889       -0.3544202409
 C         -2.1380690493        2.6353178074       -1.2121223489
 C         -2.5755079166        1.8745575679       -2.2868282429
 C         -3.6775432377        2.3243731237       -2.9877357588
 C         -4.3143365518        3.5159845798       -2.6506119063
 C         -3.8454603144        4.3075252600       -1.6184033902
 C         -2.7445234466        3.8728086007       -0.8962892105
 C         -1.9931249664        4.4250178578        0.1973906392
 C         -2.1012384991        5.5908785017        0.9406335083
 C         -1.1972700865        5.8107862623        1.9633310205
 C         -0.2011108995        4.8811835839        2.2533116445
 C         -0.0748025623        3.7109507289        1.5292885859
 C         -0.9721025074        3.4918618367        0.4928757758
 C         -1.1123824630       -0.0011743455       -0.0009863754
 N         -2.5150089358       -0.0004290002       -0.0016826345
 C         -3.3221997123        0.7329478978        0.8411268810
 C         -2.9701440044        1.5653039265        1.8946435555
 C         -3.9864511203        2.1933030043        2.5871361872
 C         -5.3238343220        1.9824990677        2.2607068172
 C         -5.6810991113        1.1157317378        1.2444476465
 C         -4.6777762952        0.4794319375        0.5300296906
 C         -4.6765859794       -0.4712996412       -0.5464262670
 C         -5.6782181249       -1.1026699001       -1.2676126265
 C         -5.3183852920       -1.9704651265       -2.2821009849
 C         -3.9799104075       -2.1873020313       -2.5999995030
 C         -2.9651818510       -1.5641280084       -1.9007895075
 C         -3.3202702090       -0.7305531094       -0.8493046799
 C         -0.3887956531       -1.2009926138        0.1890875689
 N         -1.0885019317       -2.4094146373        0.3600409456
 C         -0.9843259272       -3.4992741615       -0.4789913022
 C         -0.0920340874       -3.7297418727       -1.5172859506
 C         -0.2242904748       -4.9059600135       -2.2304187460
 C         -1.2214573442       -5.8305373679       -1.9281538142
 C         -2.1207140871       -5.5993344368       -0.9038020301
 C         -2.0065683105       -4.4272764273       -0.1713446624
 C         -2.7512547304       -3.8644032795        0.9215678965
 C         -3.8495054066       -4.2905888793        1.6528576885
 C         -4.3104938736       -3.4900925494        2.6817297897
 C         -3.6682478809       -2.2980726595        3.0067591112
 C         -2.5687182116       -1.8567732873        2.2965942774
 C         -2.1395710590       -2.6264183482        1.2249105623
 C          0.9861675775       -1.1992373389        0.1943772188
 N          3.8044639899       -1.1465079615        0.2702953045
 C          5.1660776743       -3.5032862616        0.9242003771
 C          5.8688646804       -4.6437784713        1.2555546351
 H          7.8025236446       -5.5202881470        1.5414782422
 H          9.0190448089       -3.4481491401        0.9869454659
 H          7.7590404531       -1.4007802693        0.3913876286
 H          4.0804214933        3.4782742314       -0.9704645868
 H          5.3258351068        5.5318580954       -1.5669037779
 H          7.7918423140        5.5182557393       -1.5629250568
 H          9.0128469019        3.4623591783       -0.9600418025
 H          7.7570517723        1.4126042389       -0.3639634813
 H          1.5342057139        2.1039325035       -0.3797575000
 H         -2.0692470524        0.9668526177       -2.5747699328
 H         -4.0494091240        1.7404260462       -3.8163334061
 H         -5.1766156992        3.8321563699       -3.2181801859
 H         -4.3231275899        5.2452766755       -1.3785474604
 H         -2.8788358911        6.3077280848        0.7250553579
 H         -1.2634818177        6.7133264067        2.5522411270
 H          0.4859636345        5.0783813723        3.0627387915
 H          0.6930081698        2.9902482419        1.7660186483
 H         -1.9392667909        1.7156010602        2.1762351157
 H         -3.7371920499        2.8581724327        3.4007130976
 H         -6.0907170919        2.4944115498        2.8225097176
 H         -6.7192587355        0.9342245895        1.0112856499
 H         -6.7170186290       -0.9164169813       -1.0411533269
 H         -6.0839743739       -2.4783628481       -2.8492865506
 H         -3.7285254796       -2.8528143383       -3.4123968722
 H         -1.9332079062       -1.7186075043       -2.1759882965
 H          0.6767568444       -3.0132809117       -1.7634711298
 H          0.4590213917       -5.1121560242       -3.0407915616
 H         -1.2920750829       -6.7382554131       -2.5085107729
 H         -2.8990411509       -6.3123383189       -0.6784350444
 H         -4.3309760531       -5.2287960254        1.4226816623
 H         -5.1706738572       -3.7994177245        3.2561877473
 H         -4.0338954319       -1.7069323722        3.8330253550
 H         -2.0577673604       -0.9489542199        2.5755977041
 H          1.5309867781       -2.1123495682        0.3701908836
 H          4.0873108414       -3.5006712991        0.9039666507
 H          5.3369714806       -5.5522062825        1.4986430813
