  61
       -105.47775233
 C         -6.3697923235        2.5392832155       -2.6076451327
 C         -4.9876249831        2.6204012803       -2.6041341359
 C         -4.2442993130        1.8907483827       -1.6942861964
 C         -4.8746379461        1.0675439751       -0.7643370411
 C         -6.2773249953        0.9775043737       -0.7880788946
 C         -7.0133539917        1.7123555866       -1.7013108771
 O         -6.9681482385        0.1657162041        0.0693700966
 C         -6.2462779142       -0.5779046891        0.9626344018
 C         -6.9508854258       -1.4087370136        1.8165960837
 C         -6.2763097479       -2.1754319004        2.7529007149
 C         -4.8963694849       -2.1008450890        2.8385764918
 C         -4.1842281286       -1.2731713169        1.9897853681
 C         -4.8441686211       -0.5077023468        1.0313627894
 N         -4.1612815861        0.3279504864        0.1636704173
 C         -2.7425265688        0.3940809180        0.2008214979
 C         -2.1250514145        1.5288454560        0.7220989747
 C         -0.7475272138        1.6735137436        0.7908616286
 C          0.0479151498        0.6297203559        0.3124285660
 C         -0.5876310028       -0.5220821622       -0.2160251683
 C          0.3405221637       -1.4906460588       -0.6644531304
 C         -0.1403601409       -2.6764179052       -1.2165644168
 C         -1.5176322550       -2.8463193494       -1.3033249532
 C         -2.4279517530       -1.8963979271       -0.8651777849
 C         -1.9746591125       -0.6898447280       -0.2968984549
 C          1.6330177896       -0.9481002938       -0.4160804770
 N          2.8339955469       -1.3874167223       -0.6225541315
 C          3.8944068913       -0.6592106076       -0.2950547439
 C          5.2150961639       -1.1484679396       -0.5288517445
 C          5.4369952609       -2.4098496992       -1.1043200964
 C          6.7280321743       -2.8351960244       -1.3103398186
 C          7.7744401020       -1.9891682149       -0.9364375424
 N          7.5886124327       -0.8067923984       -0.3966027315
 C          6.3490896224       -0.3754142110       -0.1879694504
 C          6.1673317213        0.9366417667        0.4109350755
 N          7.2505398594        1.6429806923        0.7198457919
 C          7.1080963248        2.8306705915        1.2617999326
 C          5.8665302193        3.4051175365        1.5382492930
 C          4.7320532136        2.6918210092        1.2264598913
 C          4.8609202861        1.4214619030        0.6459668563
 C          3.7119710579        0.6410881034        0.3005449934
 N          2.4916052312        1.1025016931        0.5190021404
 C          1.4432782973        0.4000122914        0.2034243187
 H         -6.9491322989        3.1097934631       -3.3160663387
 H         -4.4794035375        3.2533720746       -3.3148098515
 H         -3.1675336140        1.9480275202       -1.6988820011
 H         -8.0873739518        1.6192885920       -1.6871850047
 H         -8.0253003637       -1.4381752232        1.7322065698
 H         -6.8308563599       -2.8222491344        3.4138432719
 H         -4.3656621607       -2.6883294688        3.5714374039
 H         -3.1102120949       -1.2127968709        2.0622226758
 H         -2.7584580600        2.3247152263        1.0896311673
 H         -0.3077359154        2.5665577786        1.2048549324
 H          0.5351910938       -3.4397476242       -1.5692164343
 H         -1.8982970292       -3.7622731602       -1.7331685034
 H         -3.4869249950       -2.0863040164       -0.9617803907
 H          4.5820902419       -3.0138645315       -1.3704680338
 H          6.9349827033       -3.7985119789       -1.7501164446
 H          8.8060966669       -2.2814167810       -1.0801954050
 H          8.0273383148        3.3540232391        1.4888737150
 H          5.8044375639        4.3850994335        1.9853942802
 H          3.7406561389        3.0773206916        1.4134837817
  61
       -105.47758520
 C         -6.3827587302        1.7437385449       -3.0195216834
 C         -5.0051841105        1.8837882129       -3.0136222285
 C         -4.2577050801        1.4166100611       -1.9479246784
 C         -4.8806422044        0.7976293661       -0.8672427171
 C         -6.2799661621        0.6647143325       -0.8788472842
 C         -7.0195886063        1.1345169638       -1.9501333981
 O         -6.9620394467        0.0778099919        0.1524005136
 C         -6.2331370274       -0.4036963934        1.2058296354
 C         -6.9256225149       -1.0166655567        2.2355268497
 C         -6.2396554075       -1.5309053647        3.3241962092
 C         -4.8593582324       -1.4354209624        3.3772389521
 C         -4.1588412217       -0.8249999870        2.3527699157
 C         -4.8324780169       -0.2948677400        1.2554548164
 N         -4.1620330111        0.3249290181        0.2158296189
 C         -2.7416112108        0.4081809386        0.2289127423
 C         -2.1217056816        1.4248850798        0.9497505309
 C         -0.7430327287        1.5594774951        1.0277486995
 C          0.0478900698        0.6247010109        0.3559785922
 C         -0.5916393893       -0.4049039802       -0.3790541164
 C          0.3321371060       -1.2788534757       -0.9983140586
 C         -0.1552633624       -2.3420500702       -1.7560904342
 C         -1.5335757533       -2.4930706561       -1.8621383760
 C         -2.4393600878       -1.6408051296       -1.2489902948
 C         -1.9793083038       -0.5559668370       -0.4776393494
 C          1.6268976334       -0.8022112594       -0.6469834329
 N          2.8261059015       -1.2151717906       -0.9099823969
 C          3.8892120775       -0.5782006032       -0.4344317124
 C          5.2075275214       -1.0487241468       -0.7151925465
 C          5.4245697502       -2.1957097256       -1.4955006660
 C          6.7132946545       -2.6124285272       -1.7310998105
 C          7.7625368313       -1.8729353593       -1.1808329611
 N          7.5811563115       -0.7971573794       -0.4502392981
 C          6.3440742204       -0.3757323978       -0.2100204225
 C          6.1675775488        0.8176810673        0.6011801337
 N          7.2532124090        1.4364582377        1.0551677332
 C          7.1153608414        2.5159511213        1.7903031790
 C          5.8763272834        3.0613146188        2.1296572133
 C          4.7394527065        2.4369824556        1.6707134928
 C          4.8634907463        1.2828459744        0.8833918790
 C          3.7117242061        0.5970797544        0.3816809241
 N          2.4933395250        1.0285577709        0.6622786293
 C          1.4423549566        0.4101901369        0.2096426443
 H         -6.9653104071        2.1078158012       -3.8507306579
 H         -4.5046109729        2.3602700454       -3.8420461543
 H         -3.1847842597        1.5259404327       -1.9404707351
 H         -8.0908398703        1.0148410730       -1.9259584875
 H         -7.9994154421       -1.0822889792        2.1639714221
 H         -6.7851586394       -2.0065459173        4.1235339594
 H         -4.3196351930       -1.8390319011        4.2197007638
 H         -3.0833060150       -0.7553673196        2.3904804351
 H         -2.7519086458        2.1339913546        1.4687631673
 H         -0.2996100275        2.3617646189        1.5951168572
 H          0.5159832493       -3.0302836358       -2.2451715324
 H         -1.9182832754       -3.3167557615       -2.4471429753
 H         -3.4996340154       -1.8125790927       -1.3650921034
 H          4.5679089735       -2.7222908364       -1.8896294818
 H          6.9166280365       -3.4899147816       -2.3251831352
 H          8.7924523378       -2.1641734400       -1.3383522513
 H          8.0366775817        2.9724187938        2.1271286266
 H          5.8179885508        3.9516019274        2.7363645659
 H          3.7495680656        2.8059521572        1.8955601512
  61
       -105.47646335
 C         -6.5200399137        2.9917811501       -2.0752783870
 C         -5.1400368330        3.0863487369       -2.1303442448
 C         -4.3461463591        2.2055120514       -1.4184361319
 C         -4.9191304273        1.2148029323       -0.6231961227
 C         -6.3205341305        1.1010630224       -0.6099862929
 C         -7.1082635991        1.9886656159       -1.3230538621
 O         -6.9649817328        0.1130779995        0.0813744663
 C         -6.2011890542       -0.7463029727        0.8216004905
 C         -6.8648336678       -1.7343865979        1.5289239077
 C         -6.1530720442       -2.6155970043        2.3258814835
 C         -4.7790951324       -2.4847892384        2.4345905591
 C         -4.1086641405       -1.5017649259        1.7300458700
 C         -4.8017640808       -0.6358559905        0.8857655085
 N         -4.1568609704        0.3332978021        0.1298196283
 C         -2.7421995027        0.4122990064        0.1307532612
 C         -2.1201536532        1.5576546839        0.6293481878
 C         -0.7440885539        1.7156539455        0.6691062275
 C          0.0523115120        0.6624435984        0.2130477280
 C         -0.5836360675       -0.5089506972       -0.2706373843
 C          0.3465153303       -1.5014661668       -0.6597155268
 C         -0.1298271478       -2.7035026871       -1.1789573851
 C         -1.5054651573       -2.8599462068       -1.3045785792
 C         -2.4178074341       -1.8908461222       -0.9152994929
 C         -1.9705614390       -0.6756571049       -0.3585487709
 C          1.6380277218       -0.9600588176       -0.4027477591
 N          2.8378536623       -1.4368611444       -0.5124951473
 C          3.8968866425       -0.6948644740       -0.2127660753
 C          5.2142629695       -1.2416777384       -0.2761249984
 C          5.4316148997       -2.5953401506       -0.5787440020
 C          6.7179242787       -3.0807033825       -0.5943212698
 C          7.7643190959       -2.2002112860       -0.3115007207
 N          7.5833291056       -0.9291129177       -0.0359442976
 C          6.3484543217       -0.4389565744       -0.0132335018
 C          6.1711543469        0.9713294276        0.2923571156
 N          7.2562071271        1.7225074239        0.4523382706
 C          7.1168341649        2.9988322833        0.7287866869
 C          5.8767909551        3.6221227775        0.8754534630
 C          4.7403229268        2.8632373760        0.7156865622
 C          4.8659117361        1.5002740382        0.4093495356
 C          3.7156587468        0.6751601462        0.1987180994
 N          2.4955209457        1.1599116182        0.3619573214
 C          1.4476125457        0.4284363572        0.1175521824
 H         -7.1390100540        3.6843551391       -2.6228650420
 H         -4.6719650744        3.8499437544       -2.7318205689
 H         -3.2723515435        2.2773528582       -1.4791318959
 H         -8.1790487129        1.8710603813       -1.2781830246
 H         -7.9378231071       -1.7928460369        1.4414751515
 H         -6.6740629291       -3.3892100391        2.8670059844
 H         -4.2190627171       -3.1508256940        3.0722091385
 H         -3.0404306637       -1.4015558781        1.8294002980
 H         -2.7506757197        2.3499211982        1.0093129650
 H         -0.3047446438        2.6195213574        1.0594365479
 H          0.5475457559       -3.4851199589       -1.4846647711
 H         -1.8842925031       -3.7823372606       -1.7218597572
 H         -3.4743350075       -2.0764130497       -1.0397443595
 H          4.5766761426       -3.2231697135       -0.7822474609
 H          6.9207919625       -4.1172526841       -0.8147964908
 H          8.7917545852       -2.5390066794       -0.3051706651
 H          8.0374856123        3.5566397006        0.8378693096
 H          5.8172810910        4.6749270944        1.1037906481
 H          3.7499062933        3.2836913876        0.8097101692
