  58
  -88.5632232795000       0.284951280483105      !
 C         -6.6991113793       -2.4514892470       -0.3045100848
 C         -6.2620162434       -1.7209483019        0.7882904147
 C         -4.9769075087       -1.2148631431        0.8189397153
 C         -4.1046950462       -1.4334023282       -0.2461575132
 C         -2.7298487236       -0.9160386465       -0.2110997946
 C         -1.6779566476       -1.7829546342       -0.5123422978
 C         -0.3514810775       -1.3808899108       -0.4635800266
 N          0.6704108232       -2.1871550140       -0.7572379436
 C          1.9206115940       -1.7766698777       -0.6436760400
 C          2.2161447335       -0.4993417368       -0.1705118236
 N          3.5226263532       -0.0548719177       -0.0670180946
 C          4.5318517451       -0.9457547835        0.3115248025
 C          4.2886806981       -1.9144915947        1.2865263637
 C          5.2856500447       -2.7974392288        1.6503103291
 C          6.5346064417       -2.7310256040        1.0519491045
 C          6.7801036834       -1.7723051419        0.0819011440
 C          5.7893893550       -0.8856771255       -0.2918789696
 C          3.8130391209        1.2784828010       -0.3737250240
 C          3.0615185589        1.9692345229       -1.3238760721
 C          3.3286973512        3.2992164443       -1.5859110918
 C          4.3485318415        3.9558799432       -0.9179978028
 C          5.0994723659        3.2717247254        0.0256344944
 C          4.8368331463        1.9453615927        0.3016627421
 N          1.2170931231        0.3362993316        0.1411338420
 C         -0.0512811330       -0.0285243876       -0.0278308953
 C         -1.1162145528        0.8196944783        0.2520329514
 C         -2.4446180041        0.4072709190        0.1535050343
 C         -3.5086857312        1.3924719967        0.3953003790
 C         -3.4582243069        2.2227679450        1.5131036167
 C         -4.4531038981        3.1544265276        1.7431412475
 C         -5.5087577618        3.2794864747        0.8557081080
 C         -5.5600682843        2.4696271864       -0.2671700556
 C         -4.5695214483        1.5345936740       -0.4975262833
 C         -4.5495170199       -2.1820773808       -1.3339491269
 C         -5.8377911011       -2.6815858009       -1.3645313612
 H         -7.7056475570       -2.8425570865       -0.3291443052
 H         -6.9262199404       -1.5466579019        1.6223866222
 H         -4.6367348009       -0.6569533190        1.6788625767
 H         -1.8842629888       -2.8109216115       -0.7676756909
 H          2.7066635002       -2.4406739396       -0.9679390283
 H          3.3189214132       -1.9587264816        1.7594175812
 H          5.0888213332       -3.5392966856        2.4096012573
 H          7.3107715595       -3.4235969067        1.3390800487
 H          7.7481400492       -1.7194943072       -0.3935815775
 H          5.9768708635       -0.1464070438       -1.0565035897
 H          2.2769760034        1.4601378959       -1.8616649704
 H          2.7398881081        3.8232049913       -2.3239522774
 H          4.5572029645        4.9935322530       -1.1290849239
 H          5.8903322304        3.7783501754        0.5586806834
 H          5.4090303759        1.4219572228        1.0532483347
 H         -0.8859478521        1.8433859535        0.5052587591
 H         -2.6426713247        2.1177520695        2.2144451661
 H         -4.4060846373        3.7851984330        2.6194407027
 H         -6.2867990819        4.0065898947        1.0368495838
 H         -6.3761261778        2.5690613948       -0.9681946898
 H         -4.6080079012        0.9149709101       -1.3813670368
 H         -3.8827839129       -2.3530317024       -2.1672870942
 H         -6.1727883963       -3.2521730118       -2.2188861314
  58
  -88.5631227309000       0.256189706268538      !
 C         -6.6723407509       -2.1966460153        1.2771396465
 C         -5.8150931185       -1.9551748891        2.3374383842
 C         -4.5302015484       -1.5022367747        2.1032597721
 C         -4.0856139785       -1.2717305512        0.8032335630
 C         -2.7163791276       -0.7960484673        0.5595753833
 C         -1.6576279831       -1.4538148282        1.1868386281
 C         -0.3325261338       -1.1240461904        0.9408322903
 N          0.6978755211       -1.7507962211        1.5108683983
 C          1.9434076565       -1.3850256543        1.2656002587
 C          2.2204924333       -0.2964645250        0.4401589565
 N          3.5213142102        0.0794055558        0.1531857023
 C          3.8232728220        0.5265960582       -1.1379167845
 C          4.7994056010        1.5056251336       -1.3302312928
 C          5.0688333712        1.9747182001       -2.5998890789
 C          4.3715184761        1.4846198074       -3.6934776910
 C          3.3993016679        0.5166674851       -3.5058167009
 C          3.1263586434        0.0335781938       -2.2405465735
 C          4.5113897329       -0.0206573268        1.1343935493
 C          5.8020606579       -0.4316760264        0.7957259874
 C          6.7750772567       -0.5330252294        1.7703976543
 C          6.4794078864       -0.2360698379        3.0912993870
 C          5.1976792505        0.1669252724        3.4331471545
 C          4.2180343456        0.2757243798        2.4665227575
 N          1.2116317473        0.3663686193       -0.1385185874
 C         -0.0485735879       -0.0248649566        0.0356683647
 C         -1.1204673345        0.6253129140       -0.5634148235
 C         -2.4440873432        0.2602947518       -0.3207026979
 C         -3.5184501097        1.0291578037       -0.9660669314
 C         -4.5882645092        1.5242250920       -0.2227098997
 C         -5.5871032991        2.2573960867       -0.8337252687
 C         -5.5360129205        2.5087755984       -2.1950386171
 C         -4.4720286370        2.0301404236       -2.9409613814
 C         -3.4682548122        1.3011011651       -2.3313242572
 C         -4.9528165286       -1.5287289965       -0.2572302812
 C         -6.2342592514       -1.9869017134       -0.0203289466
 H         -7.6764887925       -2.5497599082        1.4607063385
 H         -6.1505802581       -2.1180024018        3.3517355188
 H         -3.8679292392       -1.3006105239        2.9332281242
 H         -1.8563541984       -2.2736054303        1.8601466403
 H          2.7416240838       -1.9770178675        1.6854119784
 H          5.3275279556        1.9062999979       -0.4777551510
 H          5.8215365238        2.7370992141       -2.7357281131
 H          4.5847944593        1.8562254186       -4.6840678503
 H          2.8542781566        0.1261935601       -4.3522328353
 H          2.3799379139       -0.7335852990       -2.1046391208
 H          6.0297774196       -0.6758232645       -0.2313325395
 H          7.7688971619       -0.8558008784        1.4981050932
 H          7.2423597005       -0.3192944868        3.8499277053
 H          4.9615980619        0.4057335905        4.4592668256
 H          3.2228728746        0.6017153559        2.7301813577
 H         -0.8987141270        1.4427157872       -1.2322161340
 H         -4.6264084070        1.3419111761        0.8411803686
 H         -6.4097146476        2.6365367229       -0.2448141565
 H         -6.3203668633        3.0780906903       -2.6718302345
 H         -4.4254191884        2.2247102643       -4.0029657048
 H         -2.6453273697        0.9178854283       -2.9179618421
 H         -4.6120234651       -1.3792032735       -1.2711385952
 H         -6.8951720446       -2.1831336156       -0.8521509368
  58
  -88.5629928246000       0.223285681295352      !
 C         -6.7240545808       -2.3954194448        0.3082577922
 C         -6.3563497987       -1.2695955760        1.0270303390
 C         -5.0633979451       -0.7882720193        0.9550777987
 C         -4.1143448570       -1.4273707684        0.1596257880
 C         -2.7328219891       -0.9314375598        0.0773881996
 C         -1.6877541999       -1.8325193255        0.2833724020
 C         -0.3586145977       -1.4339168184        0.2950273016
 N          0.6561877794       -2.2670210115        0.5256061017
 C          1.9092747700       -1.8496618603        0.4868040911
 C          2.2145381659       -0.5335934655        0.1426323443
 N          3.5197094955       -0.0785674542        0.1025348188
 C          4.5545632493       -0.9404324700       -0.2752619521
 C          5.7855125520       -0.8884567161        0.3814265783
 C          6.8043930372       -1.7446384116        0.0129613794
 C          6.6135640148       -2.6651784695       -1.0052005291
 C          5.3920495273       -2.7220899869       -1.6583357337
 C          4.3674068461       -1.8685458895       -1.3005546696
 C          3.7884155173        1.2463831913        0.4652805448
 C          3.0142216863        1.8942262450        1.4270710497
 C          3.2583364454        3.2188199881        1.7356184618
 C          4.2778117697        3.9112121670        1.1045406642
 C          5.0538055438        3.2683197931        0.1521047829
 C          4.8141486812        1.9482057067       -0.1705666149
 N          1.2211656614        0.3305300792       -0.1007171015
 C         -0.0511218904       -0.0422343297        0.0156707165
 C         -1.1088611408        0.8347247791       -0.1891625066
 C         -2.4396852447        0.4190999838       -0.1557674439
 C         -3.4961248252        1.4118848246       -0.4017479675
 C         -3.4891217354        2.6257763111        0.2816847648
 C         -4.4787513386        3.5647123572        0.0589031473
 C         -5.4849526443        3.3108102125       -0.8579490766
 C         -5.4910178522        2.1140233256       -1.5554810146
 C         -4.5062066134        1.1714018414       -1.3310193494
 C         -4.4896552191       -2.5688796083       -0.5455298869
 C         -5.7856519498       -3.0446011673       -0.4761724941
 H         -7.7369896169       -2.7667379203        0.3614569720
 H         -7.0818270411       -0.7648486784        1.6484362862
 H         -4.7790250686        0.0827609914        1.5269106148
 H         -1.9041279699       -2.8712381233        0.4815224799
 H          2.6862651490       -2.5426416481        0.7692150415
 H          5.9300009453       -0.1792738501        1.1830917232
 H          7.7509815852       -1.6988565253        0.5304404626
 H          7.4113880671       -3.3346557556       -1.2877351183
 H          5.2382862092       -3.4329949363       -2.4561513530
 H          3.4199306808       -1.9044498825       -1.8171373569
 H          2.2301175724        1.3568328686        1.9368216894
 H          2.6515918850        3.7105897017        2.4812571770
 H          4.4674146191        4.9446426974        1.3511584972
 H          5.8454750594        3.8029888254       -0.3515654616
 H          5.4050345146        1.4570681081       -0.9294868112
 H         -0.8703057365        1.8688941549       -0.3855812164
 H         -2.7120767237        2.8203367986        1.0073968774
 H         -4.4667095390        4.4977420216        0.6041544928
 H         -6.2591954503        4.0439221765       -1.0306055810
 H         -6.2678676148        1.9147671106       -2.2795261460
 H         -4.5092076042        0.2448346907       -1.8861651610
 H         -3.7620105824       -3.0690174292       -1.1687798410
 H         -6.0654885568       -3.9246129866       -1.0374725106
  58
  -88.5628461612000       0.191187300856981      !
 C         -6.8241012868       -1.3670581173       -1.6520365322
 C         -6.0685264193       -0.5754320524       -2.5008719804
 C         -4.7556460423       -0.2765546915       -2.1884073179
 C         -4.1786368527       -0.7570387222       -1.0145094719
 C         -2.7811936186       -0.4480822003       -0.6844677313
 C         -1.8039861475       -0.5894226480       -1.6717203823
 C         -0.4594307138       -0.3550522596       -1.4212672751
 N          0.4911270449       -0.4445789639       -2.3524117798
 C          1.7657666599       -0.2645461230       -2.0522292871
 C          2.1665388374       -0.0340765347       -0.7371973807
 N          3.4886432038        0.1788669759       -0.3965927752
 C          3.7756592649        1.0140870965        0.6916471543
 C          2.9663512162        2.1108971710        0.9836439878
 C          3.2282628498        2.8879095461        2.0962358780
 C          4.3003366993        2.5942505322        2.9214728766
 C          5.1130516641        1.5094932388        2.6283564781
 C          4.8561677211        0.7211966930        1.5252942352
 C          4.5234804855       -0.4127156490       -1.1272216694
 C          5.6950186290        0.3041631886       -1.3800886311
 C          6.7191375084       -0.2732084483       -2.1038204092
 C          6.5922488737       -1.5647183868       -2.5905733547
 C          5.4305026203       -2.2794900417       -2.3438329696
 C          4.4010888630       -1.7133726340       -1.6177492402
 N          1.2397824090        0.0480786428        0.2268417415
 C         -0.0548462886       -0.0358606880       -0.0635194968
 C         -1.0471857410        0.1219210943        0.8961944910
 C         -2.3994845930       -0.0531461001        0.6063398386
 C         -3.3835086261        0.2433759921        1.6570887746
 C         -3.1998201251       -0.2358381255        2.9524720254
 C         -4.1088754137        0.0640176730        3.9497570373
 C         -5.2112078217        0.8548340643        3.6726853262
 C         -5.3970270240        1.3462442462        2.3906885386
 C         -4.4923734130        1.0453750768        1.3911359681
 C         -4.9450123308       -1.5631155231       -0.1732685709
 C         -6.2552489879       -1.8636489750       -0.4904991101
 H         -7.8504923901       -1.5987747379       -1.8961044581
 H         -6.5058932737       -0.1878317639       -3.4098794734
 H         -4.1739100580        0.3535703791       -2.8460840094
 H         -2.0826862831       -0.9121664082       -2.6629925068
 H          2.4810518837       -0.2518559697       -2.8597976523
 H          2.1407052689        2.3585058610        0.3351303403
 H          2.5929394187        3.7333558236        2.3142845206
 H          4.5029275412        3.2048699634        3.7880873139
 H          5.9464578292        1.2684118399        3.2714510651
 H          5.4764400964       -0.1367093348        1.3114605277
 H          5.7880927820        1.3146841133       -1.0104324976
 H          7.6189421608        0.2916945032       -2.2966395987
 H          7.3937845462       -2.0110687590       -3.1588006080
 H          5.3279128282       -3.2884035160       -2.7143400476
 H          3.5022518313       -2.2758207081       -1.4136027448
 H         -0.7416511118        0.4450875789        1.8796706668
 H         -2.3477973997       -0.8643477494        3.1692998713
 H         -3.9567349451       -0.3213972211        4.9478569302
 H         -5.9205524104        1.0901461569        4.4525143351
 H         -6.2504528933        1.9710060394        2.1700421582
 H         -4.6348420502        1.4439815029        0.3974427840
 H         -4.5023683482       -1.9641474372        0.7265314560
 H         -6.8361615716       -2.4900970783        0.1708809785
  58
  -88.5614661424000       4.438603109602293E-002 !
 C         -6.6476124811       -2.2109622236        1.2673002096
 C         -6.3660159677       -0.8613146784        1.4020917312
 C         -5.0878339077       -0.3890870866        1.1717705260
 C         -4.0684583068       -1.2645742900        0.8050715158
 C         -2.7030643042       -0.7860709315        0.5410468054
 C         -1.6370857115       -1.3974469913        1.2040911838
 C         -0.3217117016       -1.0122476118        0.9964281622
 N          0.7116237402       -1.5461783832        1.6565766167
 C          1.9483450227       -1.1508930237        1.4191804945
 C          2.2170955229       -0.1649098997        0.4726673059
 N          3.5347055945        0.1659746269        0.1609306795
 C          3.9690230037       -0.0289000012       -1.1510118794
 C          4.9833373387        0.7612562385       -1.6942062675
 C          5.3875780422        0.5666302986       -2.9999503627
 C          4.7889295696       -0.4053184946       -3.7860594700
 C          3.7701947183       -1.1798418561       -3.2561124283
 C          3.3609806801       -0.9978859242       -1.9499763722
 C          4.3794992403        0.5884712367        1.1852770396
 C          5.7318715450        0.2406082526        1.2021161995
 C          6.5451823829        0.6774869055        2.2292624266
 C          6.0285889695        1.4530449281        3.2550370332
 C          4.6823071297        1.7848194550        3.2523929440
 C          3.8603612451        1.3567059310        2.2300524168
 N          1.2096022628        0.4245449035       -0.1786576733
 C         -0.0485140104        0.0448529740        0.0421122781
 C         -1.1288270941        0.6605473628       -0.5789793861
 C         -2.4462528836        0.2695057916       -0.3423662887
 C         -3.5259566463        0.9808226066       -1.0442321080
 C         -3.5603993405        2.3733516158       -1.0156235837
 C         -4.5745056505        3.0658708787       -1.6498114428
 C         -5.5637217723        2.3783077823       -2.3326200534
 C         -5.5269428375        0.9945047479       -2.3836065973
 C         -4.5172708200        0.2990621081       -1.7456505859
 C         -4.3565047598       -2.6229966210        0.6932898059
 C         -5.6378527901       -3.0910079446        0.9155693590
 H         -7.6495358957       -2.5763431334        1.4387207408
 H         -7.1482000669       -0.1726143171        1.6866859665
 H         -4.8714377020        0.6631659087        1.2836796127
 H         -1.8301105453       -2.1731910790        1.9291539342
 H          2.7533590754       -1.6426456025        1.9420769304
 H          5.4353836172        1.5366430161       -1.0941773922
 H          6.1721604766        1.1851008434       -3.4100672799
 H          5.1107932165       -0.5543105661       -4.8052891017
 H          3.2947470229       -1.9375001709       -3.8609219964
 H          2.5763486856       -1.6144505926       -1.5376151553
 H          6.1337746019       -0.3793875166        0.4145812319
 H          7.5897853538        0.4036906257        2.2327871929
 H          6.6696223759        1.7931401041        4.0538486805
 H          4.2720266898        2.3870421970        4.0491554786
 H          2.8139479439        1.6230798700        2.2190817188
 H         -0.9172671961        1.4330217211       -1.3023760384
 H         -2.7967815702        2.9094209080       -0.4701053375
 H         -4.5951706940        4.1455861048       -1.6085732504
 H         -6.3581480086        2.9191224695       -2.8256662563
 H         -6.2902349177        0.4540210486       -2.9244623387
 H         -4.4878917076       -0.7793487824       -1.7981952607
 H         -3.5705978866       -3.3078522405        0.4074968069
 H         -5.8500945990       -4.1456983718        0.8135046733
