  58
        -88.95149750
 C         -6.6991113793       -2.4514892470       -0.3045100848
 C         -6.2620162434       -1.7209483019        0.7882904147
 C         -4.9769075087       -1.2148631431        0.8189397153
 C         -4.1046950462       -1.4334023282       -0.2461575132
 C         -2.7298487236       -0.9160386465       -0.2110997946
 C         -1.6779566476       -1.7829546342       -0.5123422978
 C         -0.3514810775       -1.3808899108       -0.4635800266
 N          0.6704108232       -2.1871550140       -0.7572379436
 C          1.9206115940       -1.7766698777       -0.6436760400
 C          2.2161447335       -0.4993417368       -0.1705118236
 N          3.5226263532       -0.0548719177       -0.0670180946
 C          4.5318517451       -0.9457547835        0.3115248025
 C          4.2886806981       -1.9144915947        1.2865263637
 C          5.2856500447       -2.7974392288        1.6503103291
 C          6.5346064417       -2.7310256040        1.0519491045
 C          6.7801036834       -1.7723051419        0.0819011440
 C          5.7893893550       -0.8856771255       -0.2918789696
 C          3.8130391209        1.2784828010       -0.3737250240
 C          3.0615185589        1.9692345229       -1.3238760721
 C          3.3286973512        3.2992164443       -1.5859110918
 C          4.3485318415        3.9558799432       -0.9179978028
 C          5.0994723659        3.2717247254        0.0256344944
 C          4.8368331463        1.9453615927        0.3016627421
 N          1.2170931231        0.3362993316        0.1411338420
 C         -0.0512811330       -0.0285243876       -0.0278308953
 C         -1.1162145528        0.8196944783        0.2520329514
 C         -2.4446180041        0.4072709190        0.1535050343
 C         -3.5086857312        1.3924719967        0.3953003790
 C         -3.4582243069        2.2227679450        1.5131036167
 C         -4.4531038981        3.1544265276        1.7431412475
 C         -5.5087577618        3.2794864747        0.8557081080
 C         -5.5600682843        2.4696271864       -0.2671700556
 C         -4.5695214483        1.5345936740       -0.4975262833
 C         -4.5495170199       -2.1820773808       -1.3339491269
 C         -5.8377911011       -2.6815858009       -1.3645313612
 H         -7.7056475570       -2.8425570865       -0.3291443052
 H         -6.9262199404       -1.5466579019        1.6223866222
 H         -4.6367348009       -0.6569533190        1.6788625767
 H         -1.8842629888       -2.8109216115       -0.7676756909
 H          2.7066635002       -2.4406739396       -0.9679390283
 H          3.3189214132       -1.9587264816        1.7594175812
 H          5.0888213332       -3.5392966856        2.4096012573
 H          7.3107715595       -3.4235969067        1.3390800487
 H          7.7481400492       -1.7194943072       -0.3935815775
 H          5.9768708635       -0.1464070438       -1.0565035897
 H          2.2769760034        1.4601378959       -1.8616649704
 H          2.7398881081        3.8232049913       -2.3239522774
 H          4.5572029645        4.9935322530       -1.1290849239
 H          5.8903322304        3.7783501754        0.5586806834
 H          5.4090303759        1.4219572228        1.0532483347
 H         -0.8859478521        1.8433859535        0.5052587591
 H         -2.6426713247        2.1177520695        2.2144451661
 H         -4.4060846373        3.7851984330        2.6194407027
 H         -6.2867990819        4.0065898947        1.0368495838
 H         -6.3761261778        2.5690613948       -0.9681946898
 H         -4.6080079012        0.9149709101       -1.3813670368
 H         -3.8827839129       -2.3530317024       -2.1672870942
 H         -6.1727883963       -3.2521730118       -2.2188861314
