  65
  -101.527499210000       0.291854392986981      !
 N        -10.6500128910       -0.0400090961        0.0386354762
 C         -9.5003709788       -0.0311636140        0.0298876679
 C         -8.0940870155       -0.0192896268        0.0223848443
 C         -7.3763195917       -0.7758622384        0.9572598214
 C         -6.0022422691       -0.7695942236        0.9384145228
 C         -5.2905833605        0.0019890137        0.0049602035
 C         -3.8391237467        0.0087569740       -0.0054749447
 C         -3.1286099946        1.2490253083        0.0242073604
 C         -3.7890104337        2.4745604913        0.1630851740
 C         -3.1049551040        3.6824486220        0.0875617191
 C         -1.7438904634        3.6848930244       -0.1421783640
 C         -1.0525398759        2.4809183704       -0.2109623854
 C         -1.7042302716        1.2520996559       -0.0585067953
 C         -0.9861204295        0.0176530073       -0.0180453200
 C          0.4663250378        0.0213242551       -0.0204184891
 C          1.1921065187       -0.7586728084       -0.9324869641
 C          2.5680678233       -0.7563080772       -0.9375055059
 C          3.2757262212        0.0142207937       -0.0132660061
 N          4.6712288801        0.0032800581       -0.0048831771
 C          5.4692999677       -1.1250508026       -0.0256759081
 C          5.1072860030       -2.4644699005       -0.0051826554
 C          6.1189799366       -3.4063171501        0.0024103297
 C          7.4603701026       -3.0324038983        0.0003652637
 C          7.8268043378       -1.7002462839        0.0075986705
 C          6.8283732848       -0.7366208900       -0.0007608111
 C          6.8421101401        0.7005859442        0.0295264913
 C          7.8592825918        1.6442935677        0.0400447438
 C          7.5189958319        2.9834083411        0.0429387346
 C          6.1854434278        3.3836452044        0.0181291562
 C          5.1553918836        2.4619466314        0.0064273749
 C          5.4905977431        1.1156352381        0.0309991386
 C          2.5673617432        0.7923765336        0.9039716275
 C          1.1913638018        0.8017266046        0.8918439310
 C         -1.6959232675       -1.2215231742        0.0265607525
 C         -1.0361366296       -2.4468322887        0.1728337823
 C         -1.7207717613       -3.6547798027        0.1073130634
 C         -3.0833822836       -3.6601096438       -0.1126026454
 C         -3.7749795353       -2.4561070901       -0.1806828258
 C         -3.1208415596       -1.2269397797       -0.0444675536
 C         -6.0250474605        0.7637559467       -0.9186079305
 C         -7.3992899384        0.7488540818       -0.9204080320
 H         -7.9126957738       -1.3569993268        1.6931944724
 H         -5.4533839889       -1.3334972279        1.6784614675
 H         -4.8533348625        2.4875754832        0.3401064731
 H         -3.6464201416        4.6103524499        0.1925872449
 H         -1.2078050302        4.6155352302       -0.2519113684
 H          0.0107069819        2.4975732949       -0.3947020539
 H          0.6561708386       -1.3308768404       -1.6753920487
 H          3.1099684130       -1.3285178624       -1.6756945309
 H          4.0708885023       -2.7653980731        0.0185098891
 H          5.8625406131       -4.4551341533        0.0154185026
 H          8.2215112088       -3.7979800469        0.0046543557
 H          8.8663269917       -1.4104748646        0.0253558743
 H          8.8930292103        1.3340461993        0.0401790531
 H          8.2950083562        3.7338173294        0.0533161418
 H          5.9500581665        4.4373452217        0.0028555258
 H          4.1256603970        2.7831859694       -0.0343632177
 H          3.1081863402        1.3626828958        1.6444177486
 H          0.6547147690        1.3775146411        1.6314511901
 H          0.0282881943       -2.4578082066        0.3496359332
 H         -1.1783979139       -4.5823387349        0.2120533613
 H         -3.6201641090       -4.5909158761       -0.2153007148
 H         -4.8404789806       -2.4751377150       -0.3498296325
 H         -5.4942293412        1.3352218898       -1.6659471383
 H         -7.9535875986        1.3222209830       -1.6492157099
  65
  -101.527495290000       0.290646252331167      !
 N        -10.6507605741       -0.0311247469       -0.0230395774
 C         -9.5013078533       -0.0262936996       -0.0154232495
 C         -8.0950754393       -0.0196130974       -0.0070644571
 C         -7.3977588338        0.7309476809        0.9478575903
 C         -6.0234244372        0.7434938425        0.9443899104
 C         -5.2914968820       -0.0032688648        0.0067278646
 C         -3.8398382223        0.0059696801        0.0101622103
 C         -3.1319626476        1.2480297456       -0.0096445390
 C         -3.7964260842        2.4738567297       -0.1241362730
 C         -3.1140907542        3.6822627160       -0.0419384731
 C         -1.7499604166        3.6849813529        0.1683242915
 C         -1.0554815154        2.4817336310        0.2140154534
 C         -1.7067388372        1.2532071021        0.0575774752
 C         -0.9868115396        0.0205446151        0.0001066972
 C          0.4657229734        0.0248661968       -0.0013035546
 C          1.1909700998        0.8074881214       -0.9113147418
 C          2.5671585494        0.7963858369       -0.9249388660
 C          3.2759494186        0.0170080117       -0.0089068287
 N          4.6711785524        0.0051077490       -0.0142575434
 C          5.4673902290       -1.1240704914        0.0339496493
 C          5.1046425532       -2.4635174604        0.0234039466
 C          6.1151665623       -3.4062815467        0.0483298544
 C          7.4567773003       -3.0338511857        0.0716435853
 C          7.8247431213       -1.7023054761        0.0510351244
 C          6.8272826179       -0.7379658668        0.0265808545
 C          6.8438549602        0.6985789253       -0.0242658918
 C          7.8637486422        1.6393394502       -0.0330298944
 C          7.5273938489        2.9790704387       -0.0597643087
 C          6.1946558431        3.3824577503       -0.0599692355
 C          5.1619554501        2.4635259779       -0.0504729275
 C          5.4933041234        1.1160013385       -0.0520062837
 C          2.5673796650       -0.7548922401        0.9139204121
 C          1.1916500917       -0.7583795345        0.9078127775
 C         -1.6946638679       -1.2194685384       -0.0515037991
 C         -1.0330920069       -2.4417646538       -0.2138821016
 C         -1.7149361599       -3.6517771394       -0.1576862620
 C         -3.0765132837       -3.6623322852        0.0683951193
 C         -3.7701091468       -2.4605660244        0.1536957462
 C         -3.1190079236       -1.2286103455        0.0284039009
 C         -6.0056260761       -0.7601721593       -0.9366725956
 C         -7.3797766084       -0.7635671526       -0.9539049832
 H         -7.9500251707        1.2927433670        1.6871302148
 H         -5.4906133883        1.3013903244        1.7006250038
 H         -4.8629700733        2.4869840432       -0.2869469166
 H         -3.6590050099        4.6100153042       -0.1275945853
 H         -1.2142216013        4.6154269098        0.2813319542
 H          0.0101913086        2.4987069630        0.3829035446
 H          0.6544923778        1.3865380687       -1.6485582148
 H          3.1071370151        1.3669132807       -1.6657748566
 H          4.0688519081       -2.7646358599       -0.0170186344
 H          5.8575293844       -4.4548712008        0.0455277906
 H          8.2168396944       -3.7999824717        0.0936223372
 H          8.8647159332       -1.4135507191        0.0480769854
 H          8.8965301438        1.3261863242       -0.0122317061
 H          8.3055022683        3.7272892489       -0.0695944383
 H          5.9616462835        4.4367778902       -0.0628741397
 H          4.1331800833        2.7889877019       -0.0268844549
 H          3.1085282193       -1.3278604591        1.6519932154
 H          0.6556766019       -1.3342857717        1.6478243211
 H          0.0305020998       -2.4486112224       -0.3960826711
 H         -1.1711194794       -4.5770208098       -0.2747412788
 H         -3.6108169826       -4.5953068112        0.1637233786
 H         -4.8346521503       -2.4835015660        0.3284389608
 H         -5.4586997231       -1.3138134944       -1.6858678742
 H         -7.9181359035       -1.3329893563       -1.6975423300
  65
  -101.526899120000       0.154662122279398      !
 N        -10.6489222446       -0.0420278665       -0.0532147925
 C         -9.4996175291       -0.0337180485       -0.0406417502
 C         -8.0933456368       -0.0224267233       -0.0245159918
 C         -7.4011605147        1.1073978638        0.4287083451
 C         -6.0267500641        1.1177544714        0.4310606946
 C         -5.2906147323        0.0005216458        0.0044483214
 C         -3.8387463101        0.0108531358        0.0159624209
 C         -3.1259487204        1.0673160119       -0.6327803037
 C         -3.7841232381        2.0638900757       -1.3605343451
 C         -3.0939340863        3.1366031975       -1.9156273122
 C         -1.7280803311        3.2340845288       -1.7459772328
 C         -1.0396990673        2.2219831661       -1.0862077366
 C         -1.7005219127        1.0988117947       -0.5766156338
 C         -0.9878728235        0.0150031663        0.0197962848
 C          0.4688043310        0.0137681187        0.0126306435
 C          1.1826196505        0.1467589985       -1.1847593533
 C          2.5599151792        0.1324085579       -1.1974520371
 C          3.2723250820        0.0065420514       -0.0048652814
 N          4.6700943032        0.0012810867       -0.0128414284
 C          5.4715994423       -0.7851261138       -0.8180940175
 C          5.1137792227       -1.7559915996       -1.7427947679
 C          6.1286314059       -2.4287407088       -2.3968592557
 C          7.4689806101       -2.1544623244       -2.1361118441
 C          7.8311758737       -1.2067988377       -1.1983864571
 C          6.8295440394       -0.5179144458       -0.5289708113
 C          6.8384630105        0.4879702146        0.4978142832
 C          7.8518437268        1.1616849204        1.1650104270
 C          7.5060218412        2.1152011151        2.1029323692
 C          6.1705617538        2.4104968634        2.3658343971
 C          5.1442875545        1.7527633774        1.7144089673
 C          5.4854680748        0.7755282372        0.7901736523
 C          2.5739944895       -0.1142136551        1.1965659956
 C          1.1965943001       -0.1211550329        1.2012566218
 C         -1.6981783699       -1.0673576258        0.6212443001
 C         -1.0366628384       -2.1867376218        1.1384886314
 C         -1.7246563462       -3.1955241487        1.8036516782
 C         -3.0910350736       -3.0998361883        1.9696278380
 C         -3.7819894952       -2.0324788843        1.4052836818
 C         -3.1237667965       -1.0388453337        0.6736848254
 C         -5.9995101989       -1.1293037628       -0.4351472530
 C         -7.3735327797       -1.1416391651       -0.4612348192
 H         -7.9573314176        1.9647031776        0.7791309685
 H         -5.4976166112        1.9813764786        0.8066900527
 H         -4.8514993410        2.0000366637       -1.5049467002
 H         -3.6351270295        3.8924243007       -2.4642149073
 H         -1.1856424379        4.0824094389       -2.1352153100
 H          0.0286283047        2.3100454625       -0.9610787364
 H          0.6390620474        0.2312515539       -2.1144354571
 H          3.0961764397        0.2366099434       -2.1289263959
 H          4.0781238212       -1.9899241769       -1.9383056796
 H          5.8758146772       -3.1871270218       -3.1227035614
 H          8.2325777529       -2.7004358270       -2.6692302210
 H          8.8698627669       -1.0071537007       -0.9831350119
 H          8.8869357934        0.9458458404        0.9481901493
 H          8.2789571420        2.6488722933        2.6351986172
 H          5.9308068538        3.1728797418        3.0920175614
 H          4.1126306995        2.0024378619        1.9116697392
 H          3.1213699012       -0.2217612098        2.1212164546
 H          0.6644289473       -0.2019802396        2.1378297293
 H          0.0318214697       -2.2746377060        1.0152457382
 H         -1.1814188510       -4.0400958937        2.1998737364
 H         -3.6319013039       -3.8529398131        2.5222482905
 H         -4.8501955183       -1.9706437708        1.5445901001
 H         -5.4483675492       -1.9849781766       -0.7972313896
 H         -7.9081600266       -2.0080580802       -0.8226784637
  65
  -101.526565930000       0.108707734058315      !
 N        -10.6499674750       -0.0042157913        0.0518072911
 C         -9.5004272933       -0.0020567466        0.0391359667
 C         -8.0940958120       -0.0002503832        0.0272776800
 C         -7.3781573135       -0.1189259841        1.2254501765
 C         -6.0040163366       -0.1271456727        1.2080285071
 C         -5.2910179545        0.0025895316        0.0046561802
 C         -3.8397541426        0.0034692425       -0.0059212850
 C         -3.1294097397        1.0729951328       -0.6383900988
 C         -3.7960203945        2.1898975103       -1.1523604855
 C         -3.1079792636        3.2481312438       -1.7366160101
 C         -1.7293079534        3.2307837839       -1.7741744508
 C         -1.0368001604        2.1628892616       -1.2152974844
 C         -1.7028186815        1.0655145122       -0.6573224202
 C         -0.9885691890        0.0075677175       -0.0177946163
 C          0.4694865085        0.0112746310       -0.0167290307
 C          1.1919320620        0.0353579940       -1.2152459509
 C          2.5696497212        0.0237847217       -1.2149068699
 C          3.2716344368        0.0091977878       -0.0096488727
 N          4.6693711205        0.0042576059       -0.0054891731
 C          5.4767047811       -0.8539083124       -0.7274663007
 C          5.1252443684       -1.9071671927       -1.5597323237
 C          6.1447170226       -2.6385235233       -2.1394765262
 C          7.4832009693       -2.3410966025       -1.8948481388
 C          7.8388365891       -1.3096818307       -1.0473955624
 C          6.8324845899       -0.5608909228       -0.4536757128
 C          6.8339980199        0.5363274035        0.4750141470
 C          7.8426037517        1.2692637932        1.0845836302
 C          7.4900692310        2.3053055088        1.9277341797
 C          6.1527736535        2.6231809948        2.1522124501
 C          5.1311097968        1.9078912783        1.5564290085
 C          5.4789185312        0.8496032583        0.7289372627
 C          2.5636676602       -0.0024155187        1.1921867498
 C          1.1862064586       -0.0120123987        1.1854068714
 C         -1.6947617058       -1.0548442414        0.6235825615
 C         -1.0209254548       -2.1525076373        1.1716707352
 C         -1.7056153138       -3.2241444919        1.7330134930
 C         -3.0845695502       -3.2445856218        1.7085617028
 C         -3.7804838778       -2.1861085308        1.1341778614
 C         -3.1212130925       -1.0661696395        0.6171844948
 C         -6.0236420046        0.1305097776       -1.1870830443
 C         -7.3978524383        0.1196060671       -1.1821782255
 H         -7.9161446113       -0.1978453820        2.1589824793
 H         -5.4563046155       -0.1913769200        2.1369735012
 H         -4.8708022421        2.2484217484       -1.0778835822
 H         -3.6589786435        4.0842671755       -2.1397829920
 H         -1.1813089510        4.0513377108       -2.2121829861
 H          0.0415934808        2.1936983097       -1.1957524044
 H          0.6559325847        0.0341942333       -2.1532296537
 H          3.1141628274        0.0443687765       -2.1472787692
 H          4.0909133616       -2.1583067949       -1.7406147377
 H          5.8969978280       -3.4615552517       -2.7928850773
 H          8.2504288785       -2.9347528257       -2.3681104175
 H          8.8759792663       -1.0910375321       -0.8433364809
 H          8.8792501302        1.0345860434        0.8965268916
 H          8.2592173182        2.8864616877        2.4137125497
 H          5.9078795867        3.4495970113        2.8025966538
 H          4.0981078559        2.1748052834        1.7215376629
 H          3.1034689597       -0.0243289069        2.1272272554
 H          0.6452254752       -0.0122943456        2.1204780834
 H          0.0573213082       -2.1804249450        1.1423509909
 H         -1.1515990371       -4.0449748491        2.1627736704
 H         -3.6297678857       -4.0832876970        2.1141773111
 H         -4.8557140730       -2.2468246888        1.0698877435
 H         -5.4912050442        0.1947842916       -2.1249134848
 H         -7.9513171418        0.1976629736       -2.1069501285
  65
  -101.526285770000       8.081794846232970E-002 !
 N        -10.5995542188       -0.4620186055       -0.4945953794
 C         -9.4591186362       -0.3640698243       -0.3878842013
 C         -8.0637334653       -0.2456457835       -0.2578968733
 C         -7.4662940462       -0.2735385122        1.0083512635
 C         -6.1002212781       -0.1768594667        1.1278333486
 C         -5.2807768895       -0.0310394401       -0.0031583491
 C         -3.8363239743        0.0588848680        0.1111485687
 C         -3.1460118584        1.1556310197       -0.4956848436
 C         -3.8388931484        2.2391631137       -1.0453110914
 C         -3.1723337040        3.3268531513       -1.5989552921
 C         -1.7936191842        3.3713533345       -1.5723591014
 C         -1.0798682010        2.3332427121       -0.9849994582
 C         -1.7221409200        1.2073329639       -0.4571278206
 C         -0.9883429707        0.1730122582        0.1999900440
 C          0.4676377161        0.1857632532        0.1587644215
 C          1.1358809431        0.2175716462       -1.0718615374
 C          2.5102033208        0.1709325137       -1.1365295390
 C          3.2679374011        0.1094399259        0.0337019376
 N          4.6610743700        0.0293437173       -0.0360529521
 C          5.3727316470       -0.8552863701       -0.8250885624
 C          4.9115815887       -1.8620612679       -1.6615097714
 C          5.8499070923       -2.6349236243       -2.3191113193
 C          7.2156645999       -2.4244127754       -2.1461389155
 C          7.6806251598       -1.4424872239       -1.2928634904
 C          6.7569526095       -0.6535389674       -0.6216783760
 C          6.8780395731        0.4116272022        0.3358684754
 C          7.9634135671        1.0591185197        0.9089181144
 C          7.7247764750        2.0866320709        1.8010070698
 C          6.4248626159        2.4804833828        2.1087931249
 C          5.3283389393        1.8511183637        1.5501514438
 C          5.5613304626        0.8000762797        0.6745116268
 C          2.6167830671        0.1153878791        1.2672325663
 C          1.2403101720        0.1457307475        1.3255810427
 C         -1.6776751859       -0.8915855571        0.8584695408
 C         -0.9871134636       -1.9482173898        1.4629553653
 C         -1.6525984634       -3.0195080124        2.0476676133
 C         -3.0286387710       -3.0869137605        1.9854600777
 C         -3.7396024807       -2.0771335495        1.3461421385
 C         -3.1031278978       -0.9542888899        0.8068021258
 C         -5.8973031505        0.0173700888       -1.2644936957
 C         -7.2600337310       -0.0990612597       -1.3958600098
 H         -8.0888442114       -0.3698877045        1.8860137477
 H         -5.6471731570       -0.1703971425        2.1084951691
 H         -4.9177513915        2.2454458769       -1.0247465914
 H         -3.7403766250        4.1372112174       -2.0300506447
 H         -1.2638239521        4.2174997026       -1.9832680754
 H         -0.0055100728        2.4098096088       -0.9176691373
 H          0.5569316553        0.2443743290       -1.9834718074
 H          3.0106606850        0.1929459049       -2.0930782743
 H          3.8556435629       -2.0482483771       -1.7869824991
 H          5.5153743553       -3.4224883325       -2.9777601627
 H          7.9172364410       -3.0477711138       -2.6796563192
 H          8.7389831158       -1.2923515320       -1.1434976952
 H          8.9708650661        0.7656684029        0.6560141078
 H          8.5549983908        2.6014217790        2.2605318119
 H          6.2693864430        3.2987349471        2.7959911752
 H          4.3255729469        2.1778868105        1.7805785841
 H          3.1978867426        0.0703648992        2.1762684148
 H          0.7460257589        0.1644871905        2.2859706047
 H          0.0915402711       -1.9466920335        1.4612520709
 H         -1.0845801610       -3.8037331253        2.5249645499
 H         -3.5586840538       -3.9268027319        2.4082805157
 H         -4.8086191426       -2.1811029321        1.2469362526
 H         -5.2788369537        0.1066494216       -2.1457130202
 H         -7.7212688168       -0.0843212594       -2.3726520214
  65
  -101.526193650000       7.331154988180966E-002 !
 N        -10.5827437016        0.5275312155        0.5833411414
 C         -9.4453148489        0.4184015548        0.4576522292
 C         -8.0532768220        0.2862773700        0.3070574151
 C         -7.2345326151        0.1256369720        1.4323081638
 C         -5.8752719000       -0.0049560657        1.2801122093
 C         -5.2769923687        0.0421952023        0.0099579584
 C         -3.8351583674       -0.0617477534       -0.1238496907
 C         -3.0995281866        0.9472352683       -0.8231036052
 C         -3.7314250112        2.0752301711       -1.3571633567
 C         -3.0175425001        3.0812598173       -1.9989974538
 C         -1.6423713199        3.0053018961       -2.0683656723
 C         -0.9807808093        1.9288843465       -1.4888062295
 C         -1.6746981052        0.8751993825       -0.8829408996
 C         -0.9888675720       -0.1951075389       -0.2297889082
 C          0.4668565454       -0.2117459176       -0.1845903696
 C          1.2454346381       -0.1662250781       -1.3472938601
 C          2.6215510718       -0.1314730311       -1.2817140852
 C          3.2660939795       -0.1270895986       -0.0447920203
 N          4.6581024629       -0.0371926227        0.0339738819
 C          5.5695832654       -0.7974877683       -0.6733494762
 C          5.3514478055       -1.8460954854       -1.5556982248
 C          6.4571192064       -2.4644485262       -2.1086359685
 C          7.7515471567       -2.0620823203       -1.7889527569
 C          7.9753722260       -1.0367358503       -0.8905487804
 C          6.8806421754       -0.4003012844       -0.3229870979
 C          6.7440422098        0.6597048762        0.6382182730
 C          7.6563677314        1.4531173389        1.3196419776
 C          7.1772239601        2.4277599131        2.1734703542
 C          5.8085735318        2.6269130199        2.3368255125
 C          4.8813945377        1.8494005096        1.6689537546
 C          5.3568215608        0.8496794618        0.8320311872
 C          2.5025719536       -0.1985610605        1.1211751012
 C          1.1289176613       -0.2495747125        1.0492456966
 C         -1.7261236756       -1.2289539674        0.4241017537
 C         -1.0885054243       -2.3624563050        0.9411205663
 C         -1.8061962747       -3.3991317310        1.5262515663
 C         -3.1843676006       -3.3445801934        1.5624143156
 C         -3.8465518256       -2.2486465634        1.0199295260
 C         -3.1491191080       -1.1673253275        0.4717171732
 C         -6.1114117699        0.2011040184       -1.1081979448
 C         -7.4744522883        0.3127618599       -0.9678391866
 H         -7.6811974733        0.1127315849        2.4158593224
 H         -5.2445891735       -0.1037369841        2.1516282451
 H         -4.7991487986        2.1859921923       -1.2523775880
 H         -3.5445274163        3.9247324589       -2.4184519121
 H         -1.0718202186        3.7869238842       -2.5468915020
 H          0.0977694113        1.9212862361       -1.4919030149
 H          0.7563081660       -0.1828097349       -2.3103567216
 H          3.2071246345       -0.0809137050       -2.1876122575
 H          4.3530271607       -2.1794846427       -1.7953734688
 H          6.3133037965       -3.2805423321       -2.8009351709
 H          8.5892531541       -2.5681697462       -2.2445448453
 H          8.9785208884       -0.7366632814       -0.6284606625
 H          8.7169869400        1.3117614437        1.1779134909
 H          7.8697835359        3.0537440347        2.7156339671
 H          5.4628135910        3.4089133349        2.9963188777
 H          3.8230901923        2.0266768113        1.7872867191
 H          2.9982855821       -0.2239371225        2.0801023048
 H          0.5453416664       -0.2825899635        1.9576902397
 H         -0.0148849144       -2.4450772035        0.8684085950
 H         -1.2799966517       -4.2509615514        1.9299971860
 H         -3.7555021502       -4.1537066197        1.9917220967
 H         -4.9255666379       -2.2468406050        1.0059784991
 H         -5.6734449690        0.1912534195       -2.0956399009
 H         -8.1091927300        0.4162689696       -1.8359112632
