  65
  -101.139118256200       0.283924704721332      !
 N        -10.6489071396       -0.0367230139       -0.0597601798
 C         -9.4996059362       -0.0296300174       -0.0461625066
 C         -8.0933385480       -0.0199005598       -0.0286828112
 C         -7.4012813787        1.0634250806        0.5267436661
 C         -6.0268716591        1.0734915233        0.5304136782
 C         -5.2906157532        0.0002251338        0.0030342813
 C         -3.8387505716        0.0094220728        0.0158460130
 C         -3.1257791613        1.1210690909       -0.5327649698
 C         -3.7837579804        2.1803794504       -1.1659355163
 C         -3.0934206878        3.2995932449       -1.6198051162
 C         -1.7276137412        3.3810250645       -1.4415343015
 C         -1.0394095214        2.3125066434       -0.8774801760
 C         -1.7003678839        1.1472336467       -0.4735522614
 C         -0.9878782552        0.0131398997        0.0208230475
 C          0.4688008097        0.0125376340        0.0139715259
 C          1.1829432712        0.2550997268       -1.1659123094
 C          2.5602422710        0.2419478504       -1.1794956056
 C          3.2723262680        0.0068908053       -0.0033502133
 N          4.6700976376        0.0023555332       -0.0113952259
 C          5.4718258052       -0.7066574677       -0.8853580484
 C          5.1142619802       -1.5883331101       -1.8955475115
 C          6.1292954220       -2.1980827338       -2.6084494545
 C          7.4695722798       -1.9489832275       -2.3232105819
 C          7.8315076652       -1.0916094622       -1.3021849222
 C          6.8296903156       -0.4672054491       -0.5725089872
 C          6.8383248514        0.4399574834        0.5424582711
 C          7.8515206368        1.0494165454        1.2690782732
 C          7.5054388255        1.9126154980        2.2906449269
 C          6.1699058295        2.1825031587        2.5792328120
 C          5.1438121910        1.5875070477        1.8697832828
 C          5.4852489745        0.6994307614        0.8596619947
 C          2.5736673849       -0.2238600977        1.1816875313
 C          1.1962659876       -0.2311736266        1.1853439896
 C         -1.6983445918       -1.1199445259        0.5199581369
 C         -1.0369667338       -2.2821748906        0.9322153147
 C         -1.7251387213       -3.3478588021        1.5015696144
 C         -3.0915631436       -3.2678154333        1.6752718180
 C         -3.7823668228       -2.1530537102        1.2113208170
 C         -3.1239474126       -1.0963462939        0.5744103388
 C         -5.9993869955       -1.0843547026       -0.5388258576
 C         -7.3734023440       -1.0942081012       -0.5663123697
 H         -7.9575511146        1.8848710838        0.9543941473
 H         -5.4978439988        1.8988850378        0.9840411442
 H         -4.8510943079        2.1301047997       -1.3159006954
 H         -3.6344661258        4.1026870332       -2.0966844433
 H         -1.1850723052        4.2615479558       -1.7509345758
 H          0.0288832676        2.3886614251       -0.7444892942
 H          0.6396397733        0.4247688403       -2.0840218992
 H          3.0967580201        0.4313841952       -2.0972882137
 H          4.0786609239       -1.8032657590       -2.1120318910
 H          5.8766799365       -2.8864757129       -3.4010506007
 H          8.2333171580       -2.4436154599       -2.9040854235
 H          8.8701349306       -0.9126349077       -1.0691970683
 H          8.8866727390        0.8544159932        1.0336042034
 H          8.2782266092        2.3950425874        2.8699586668
 H          5.9299495981        2.8748552829        3.3724046702
 H          4.1121005349        1.8179987818        2.0888943184
 H          3.1207901462       -0.4160242132        2.0926729460
 H          0.6638446700       -0.3978020486        2.1103652715
 H          0.0315515606       -2.3583880664        0.8017003405
 H         -1.1820067336       -4.2253104959        1.8185656665
 H         -3.6325779514       -4.0685507556        2.1561217266
 H         -4.8506111372       -2.1042727087        1.3554335016
 H         -5.4481423274       -1.9031038429       -0.9779397449
 H         -7.9079276699       -1.9236915206       -1.0060730665
  65
  -101.139054476300       0.265394531679649      !
 N        -10.6500229250       -0.0431622956        0.0318860284
 C         -9.5003786930       -0.0335745600        0.0243026271
 C         -8.0940927705       -0.0210912642        0.0183075369
 C         -7.3765785518       -0.8604726663        0.8798152976
 C         -6.0024961459       -0.8525274523        0.8620013366
 C         -5.2905845265        0.0016391898        0.0036789879
 C         -3.8391221353        0.0093068797       -0.0056933851
 C         -3.1286208299        1.2415701538        0.1381519851
 C         -3.7890634915        2.4491473816        0.3890005482
 C         -3.1049917090        3.6588464457        0.4251003180
 C         -1.7438642664        3.6823852351        0.1969305409
 C         -1.0524907114        2.4898283536        0.0178703949
 C         -1.7042185387        1.2522095918        0.0564599199
 C         -0.9861155162        0.0192596021       -0.0166138540
 C          0.4663305333        0.0231020492       -0.0182430380
 C          1.1923642503       -0.6697001140       -0.9979997857
 C          2.5683268684       -0.6669136284       -1.0024041778
 C          3.2757296791        0.0153097156       -0.0110080035
 N          4.6712300300        0.0036139061       -0.0032865207
 C          5.4693106876       -1.1180370790       -0.1275711184
 C          5.1072957712       -2.4536540231       -0.2304797328
 C          6.1189908536       -3.3922280465       -0.3092856542
 C          7.4603802330       -3.0197412960       -0.2765590128
 C          7.8268078583       -1.6939057793       -0.1467081034
 C          6.8283757903       -0.7335757334       -0.0666583894
 C          6.8420993768        0.6947504451        0.0957161691
 C          7.8592656417        1.6334667932        0.1932811015
 C          7.5189734616        2.9666445112        0.3192582222
 C          6.1854265087        3.3674955123        0.3310087825
 C          5.1553813993        2.4508040454        0.2342864895
 C          5.4905851890        1.1079336962        0.1349952404
 C          2.5671115564        0.7058024618        0.9737313474
 C          1.1911169525        0.7162584268        0.9621398681
 C         -1.6959262380       -1.2187501230       -0.0863851893
 C         -1.0361754013       -2.4523339037       -0.0532714099
 C         -1.7207883931       -3.6491171116       -0.2298229024
 C         -3.0833386727       -3.6341642096       -0.4496680937
 C         -3.7749214432       -2.4289890915       -0.4068893026
 C         -3.1208250232       -1.2175787558       -0.1579992856
 C         -6.0247985327        0.8451531082       -0.8460965913
 C         -7.3990404149        0.8305098751       -0.8496347800
 H         -7.9131540659       -1.5068342270        1.5590229133
 H         -5.4538384233       -1.4821298767        1.5471852397
 H         -4.8534363621        2.4458457104        0.5661781749
 H         -3.6464886793        4.5731659245        0.6148927931
 H         -1.2077520535        4.6191642029        0.1734209722
 H          0.0108063237        2.5232921940       -0.1632680039
 H          0.6566338469       -1.1711246679       -1.7905392634
 H          3.1104314041       -1.1688011626       -1.7899541124
 H          4.0708928695       -2.7554631968       -0.2348534284
 H          5.8625516154       -4.4377888536       -0.3928856609
 H          8.2215227905       -3.7824822826       -0.3425075823
 H          8.8663246103       -1.4070191759       -0.1020859023
 H          8.8930132600        1.3245001523        0.1651564616
 H          8.2949805166        3.7129000591        0.3988351408
 H          5.9500417835        4.4181377151        0.4126679785
 H          4.1256599990        2.7744560238        0.2229395133
 H          3.1077315559        1.2055634921        1.7636490510
 H          0.6542635730        1.2215784588        1.7514326270
 H          0.0282010442       -2.4795508326        0.1220616961
 H         -1.1784400103       -4.5823900132       -0.2107070519
 H         -3.6200891518       -4.5515644745       -0.6377041028
 H         -4.8403745008       -2.4323556784       -0.5773601890
 H         -5.4937779270        1.4829337839       -1.5375515917
 H         -7.9531406254        1.4685022591       -1.5227579527
  65
  -101.138679139300       0.178401716259493      !
 N        -10.6499758968       -0.0100023511        0.0492172408
 C         -9.5004338104       -0.0066723244        0.0369797654
 C         -8.0941005190       -0.0037147452        0.0255761118
 C         -7.3783611812       -0.2152640037        1.2110014679
 C         -6.0042155601       -0.2218738692        1.1932638265
 C         -5.2910191030        0.0013430434        0.0037984438
 C         -3.8397535510        0.0032844323       -0.0063916026
 C         -3.1294857201        1.1189541179       -0.5534677968
 C         -3.7962032610        2.2723958026       -0.9789865918
 C         -3.1082455386        3.3730475353       -1.4788802665
 C         -1.7295642309        3.3589073067       -1.5174037412
 C         -1.0369666608        2.2508299929       -1.0432914231
 C         -1.7028898747        1.1132074551       -0.5726435528
 C         -0.9885672461        0.0087674992       -0.0173462125
 C          0.4694875380        0.0126214787       -0.0157069841
 C          1.1921493346        0.1301309796       -1.2085614761
 C          2.5698689737        0.1187945277       -1.2088529371
 C          3.2716344447        0.0104631634       -0.0082565443
 N          4.6693712076        0.0054452774       -0.0042182434
 C          5.4769925697       -0.7937270902       -0.7907032198
 C          5.1258753973       -1.7789982770       -1.7025709971
 C          6.1455866855       -2.4627931802       -2.3373334207
 C          7.4839718960       -2.1851084959       -2.0700108791
 C          7.8392654212       -1.2227975502       -1.1447038221
 C          6.8326690694       -0.5227077773       -0.4946472675
 C          6.8338135905        0.4988186512        0.5167070956
 C          7.8421748459        1.1822007553        1.1817279275
 C          7.4892982111        2.1493425365        2.1029666206
 C          6.1519040059        2.4485406459        2.3512648512
 C          5.1304789046        1.7816753019        1.7013604741
 C          5.4786308847        0.7911340385        0.7939987807
 C          2.5634485638       -0.0948703604        1.1888809984
 C          1.1859903875       -0.1041378444        1.1811018674
 C         -1.6946861144       -1.1005032680        0.5391663518
 C         -1.0207527287       -2.2374214692        1.0001996104
 C         -1.7053525435       -3.3496498282        1.4762065577
 C         -3.0842985452       -3.3683519771        1.4499640346
 C         -3.7802980963       -2.2684558477        0.9596575691
 C         -3.1211342326       -1.1115318732        0.5316235194
 C         -6.0234468439        0.2216048488       -1.1744962175
 C         -7.3976561675        0.2101246580       -1.1707273474
 H         -7.9165060585       -0.3667666308        2.1354408707
 H         -5.4566632603       -0.3581958658        2.1144887593
 H         -4.8710093411        2.3247615235       -0.9003886466
 H         -3.6593215474        4.2379623960       -1.8157849185
 H         -1.1816326692        4.2111840519       -1.8900409427
 H          0.0414177882        2.2802010858       -1.0211922832
 H          0.6563227406        0.2019629276       -2.1438904307
 H          3.1145499706        0.2120498114       -2.1366792400
 H          4.0916230315       -2.0154526255       -1.9026748804
 H          5.8981362669       -3.2324551734       -3.0529293028
 H          8.2513940031       -2.7399599322       -2.5879363116
 H          8.8763310540       -1.0205450177       -0.9240249668
 H          8.8788981471        0.9630600055        0.9761632766
 H          8.2582519641        2.6909955026        2.6328991169
 H          5.9067411256        3.2217307308        3.0640119336
 H          4.0973984488        2.0347428661        1.8865591337
 H          3.1030816852       -0.1894793647        2.1194784502
 H          0.6448373534       -0.1773624615        2.1132017679
 H          0.0575044323       -2.2627910449        0.9690069077
 H         -1.1512672946       -4.2013770906        1.8408166613
 H         -3.6294202032       -4.2361974174        1.7888933599
 H         -4.8555054672       -2.3241564050        0.8906198894
 H         -5.4908488705        0.3588410710       -2.1043628117
 H         -7.9509647123        0.3599041967       -2.0867158164
  65
  -101.138461048900       0.141635336847528      !
 N        -10.5982744755       -0.4006595785       -0.5698117779
 C         -9.4581068731       -0.3135440006       -0.4514763571
 C         -8.0630497874       -0.2083264953       -0.3073731362
 C         -7.4707930011       -0.3342005522        0.9553555872
 C         -6.1050444034       -0.2497997897        1.0872073731
 C         -5.2807679006       -0.0196513793       -0.0261186180
 C         -3.8366310559        0.0582460104        0.1003623980
 C         -3.1419063852        1.1967303617       -0.4181361487
 C         -3.8306168361        2.3205613411       -0.8860005923
 C         -3.1598761638        3.4459991999       -1.3522511563
 C         -1.7812032153        3.4854491611       -1.3169531043
 C         -1.0716947840        2.4039779666       -0.8079115321
 C         -1.7181130028        1.2423519729       -0.3701855797
 C         -0.9888334627        0.1592841901        0.2087774337
 C          0.4673226909        0.1721015859        0.1743264408
 C          1.1405989268        0.2965065160       -1.0476488284
 C          2.5150862240        0.2520710197       -1.1103330653
 C          3.2679647421        0.0997009868        0.0547168451
 N          4.6612271799        0.0222559517       -0.0155242201
 C          5.3744893816       -0.8009462465       -0.8671102923
 C          4.9149290515       -1.7398571991       -1.7798567172
 C          5.8545250776       -2.4621425272       -2.4909642905
 C          7.2199455137       -2.2683323972       -2.2970764210
 C          7.6832036063       -1.3554945845       -1.3694104632
 C          6.7582341732       -0.6182396977       -0.6434720574
 C          6.8773487937        0.3703426491        0.3931829697
 C          7.9615504605        0.9698519281        1.0182933376
 C          7.7211422110        1.9266497048        1.9854005457
 C          6.4206995919        2.2985367020        2.3173285629
 C          5.3253224480        1.7160223931        1.7079263798
 C          5.5599764857        0.7345191885        0.7553989296
 C          2.6118330258        0.0126839493        1.2825418989
 C          1.2351916615        0.0413585850        1.3376706998
 C         -1.6827298298       -0.9510966989        0.7812324731
 C         -0.9965129124       -2.0522957013        1.3058433131
 C         -1.6662755988       -3.1637597706        1.8043288823
 C         -3.0421711589       -3.2233310988        1.7317829995
 C         -3.7487326613       -2.1661406417        1.1687802651
 C         -3.1080715719       -1.0066817934        0.7193626182
 C         -5.8920945238        0.1263437264       -1.2824546234
 C         -7.2544881903        0.0231501435       -1.4276530543
 H         -8.0970629982       -0.4960667162        1.8206466058
 H         -5.6559597298       -0.3192823508        2.0672518096
 H         -4.9095365309        2.3275120842       -0.8692238268
 H         -3.7247181555        4.2881325896       -1.7223336292
 H         -1.2482355084        4.3594242522       -1.6598901431
 H          0.0025172023        2.4729235327       -0.7307340298
 H          0.5653942580        0.3941408209       -1.9567918741
 H          3.0194510127        0.3461060659       -2.0604389625
 H          3.8591762626       -1.9136951022       -1.9233160895
 H          5.5212532683       -3.1963422535       -3.2092046985
 H          7.9225552932       -2.8505429567       -2.8739558265
 H          8.7412150576       -1.2194343298       -1.2048753428
 H          8.9694910151        0.6944882552        0.7476226588
 H          8.5504165134        2.4030599258        2.4861772368
 H          6.2639066059        3.0621765043        3.0644696709
 H          4.3222179740        2.0263154802        1.9587520856
 H          3.1891698845       -0.1029249615        2.1877332907
 H          0.7370571590       -0.0123326294        2.2947476386
 H          0.0821398799       -2.0529028208        1.3084686308
 H         -1.1015985319       -3.9833690931        2.2224754521
 H         -3.5754259461       -4.0919773020        2.0870740275
 H         -4.8175232029       -2.2599825301        1.0577462978
 H         -5.2699067035        0.2814412321       -2.1518485582
 H         -7.7117374809        0.1134941924       -2.4022497631
  65
  -101.138384709600       0.130643710491998      !
 N        -10.5811764259        0.4565547983        0.6658103964
 C         -9.4440810042        0.3597489660        0.5276293083
 C         -8.0524397448        0.2424698512        0.3618412480
 C         -7.2282707964        0.0029529757        1.4689608767
 C         -5.8694171191       -0.1127679781        1.3018286349
 C         -5.2769760227        0.0277087966        0.0358376066
 C         -3.8355276737       -0.0625488139       -0.1113837687
 C         -3.1053459221        0.9962838579       -0.7389684408
 C         -3.7421991962        2.1583248536       -1.1872591361
 C         -3.0334993803        3.2100010552       -1.7576946143
 C         -1.6584860673        3.1428200658       -1.8383322855
 C         -0.9918513958        2.0290058062       -1.3410578116
 C         -1.6806402824        0.9324535093       -0.8100314989
 C         -0.9894481106       -0.1805281688       -0.2390208895
 C          0.4664988963       -0.1966262413       -0.2014494307
 C          1.2397241799       -0.0650835833       -1.3611712033
 C          2.6160398338       -0.0316067661       -1.2992085192
 C          3.2661387449       -0.1150635681       -0.0680150588
 N          4.6582806260       -0.0274994914        0.0110207996
 C          5.5682862994       -0.7322628559       -0.7534074633
 C          5.3485550984       -1.7148414053       -1.7083724527
 C          6.4531227734       -2.2887031288       -2.3093906319
 C          7.7480625130       -1.9071737596       -1.9670369416
 C          7.9736083491       -0.9489423528       -0.9977669085
 C          6.8800067868       -0.3580763485       -0.3809021812
 C          6.7453365945        0.6292471750        0.6550729996
 C          7.6589222266        1.3736343232        1.3881681674
 C          7.1814222620        2.2827010763        2.3123549558
 C          5.8130738171        2.4659704590        2.4956190529
 C          4.8846599191        1.7364225587        1.7772550985
 C          5.3585762346        0.8011103216        0.8681309284
 C          2.5080428880       -0.2726859220        1.0930186390
 C          1.1341976035       -0.3219158738        1.0235355985
 C         -1.7214038136       -1.2608809789        0.3415276895
 C         -1.0788934916       -2.4271671658        0.7723989611
 C         -1.7915876384       -3.5053158648        1.2840793485
 C         -3.1697021585       -3.4570902866        1.3300628393
 C         -3.8368077146       -2.3264952099        0.8711803209
 C         -3.1443063063       -1.2065415114        0.3996399650
 C         -6.1167840668        0.2649447298       -1.0642632678
 C         -7.4794279069        0.3626268710       -0.9102909536
 H         -7.6704683694       -0.0822385019        2.4509245444
 H         -5.2345909731       -0.2727155670        2.1611720500
 H         -4.8096883404        2.2584515687       -1.0701099285
 H         -3.5642804519        4.0802457745       -2.1127253513
 H         -1.0918710419        3.9584905889       -2.2615077480
 H          0.0866883736        2.0244426448       -1.3493670251
 H          0.7463015301       -0.0132087018       -2.3207820188
 H          3.1974089024        0.0858807585       -2.2016002462
 H          4.3498230427       -2.0325976931       -1.9672190467
 H          6.3080398944       -3.0529365489       -3.0583021058
 H          8.5848523128       -2.3768012772       -2.4616810536
 H          8.9772449116       -0.6660246513       -0.7189978436
 H          8.7192097741        1.2456486027        1.2319902855
 H          7.8749968240        2.8696066552        2.8953922084
 H          5.4685170451        3.1973066399        3.2114639729
 H          3.8265003235        1.9019331737        1.9126883723
 H          3.0081291206       -0.3660951242        2.0454396639
 H          0.5547977706       -0.4220844371        1.9297279230
 H         -0.0054269716       -2.5015320283        0.6892500554
 H         -1.2616436912       -4.3827612611        1.6228412131
 H         -3.7370600568       -4.2966334397        1.7021619225
 H         -4.9158757613       -2.3264767199        0.8620694408
 H         -5.6832503741        0.3276989494       -2.0517165654
 H         -8.1183069132        0.5270285628       -1.7658398880
