73
 energy: -100.671859924396 gnorm: 0.000092164853 xtb: 6.7.1 (edcfbbe)
C           -5.68432296302431       -4.63085161791508        0.60964382799468
C           -4.27888968045014       -4.93312853879849        0.06786344380767
C           -4.37956419660115       -5.45587407657181       -1.37346551191021
C           -3.65987372097637       -6.03442738072937        0.93389024518402
C           -3.45878089425879       -3.65390866484769        0.07216566493129
C           -2.26490950343967       -3.51705382990192        0.77573064872600
C           -1.54469220230049       -2.33941034104357        0.75642811431045
C           -1.99785136620974       -1.24118857106415        0.02417502566597
N           -1.26936692985723       -0.05112488431962       -0.00304876547795
C            0.11571591709446       -0.08540338490784       -0.00358993812494
C            0.87130986390441        0.90429613256744        0.66384567159220
C            2.23225627674714        0.87753433804695        0.65246151670792
C            2.97053866475106       -0.13992743267764       -0.02967997495369
C            4.38091804969016       -0.17215098466150       -0.04371384943545
C            5.08400255859444       -1.37677085853856       -0.29679089947053
C            6.44471945382146       -1.49324196823219       -0.25095319183871
N            7.09368052838688       -2.70374108555360       -0.50298531998321
C            7.24718492188011       -0.32584939444939        0.00856675088746
N            8.62556635048582       -0.44079603603232        0.05073977783685
C            6.60837537493774        0.86637472665300        0.26399468572247
C            5.21210346426578        0.99597341394671        0.24212294744429
C            4.73721564149331        2.29078100124381        0.37940329505365
N            4.45493371539849        3.41427155712918        0.48189693437078
C            2.18028441927773       -1.13699439346767       -0.68880740205815
C            0.81983683879225       -1.10893171639000       -0.67733455696450
C           -1.93772796056921        1.17361136587921       -0.02442648538696
C           -3.12771531775715        1.35389485580312        0.68237833956744
C           -3.77836377895540        2.57121982256912        0.66420403666474
C           -3.27649053273867        3.65637471378642       -0.04988699562520
C           -3.96092214786816        5.01224912492354       -0.09128550878932
C           -5.25083496981254        5.04859452030259        0.73399735107847
C           -4.31428435125473        5.35054396510779       -1.54784953128463
C           -3.00157100758017        6.07282490862490        0.47003447301181
C           -2.08574892711947        3.46280176621351       -0.75285914368614
C           -1.42508439136539        2.25452661057351       -0.74680566299138
C           -3.19360233128464       -1.36672865413155       -0.68807937243129
C           -3.90019616966433       -2.54846647015250       -0.65787043693299
H           -5.62065348195941       -4.23557375367707        1.62162539229293
H           -6.20166512447124       -3.90313989374266       -0.00924002061272
H           -6.27868693016390       -5.54177577743686        0.63196934795983
H           -4.94921734882412       -6.38247692795418       -1.39508575588188
H           -4.87299164015069       -4.73799002030001       -2.02280344142655
H           -3.38651871386489       -5.65186384214273       -1.77330180810079
H           -3.58638864043072       -5.72135568382318        1.97297401430635
H           -2.67164841604253       -6.30926660702548        0.57214238368186
H           -4.28914472429046       -6.92137553913444        0.89478469846877
H           -1.87853556121834       -4.33333439410738        1.36340141041241
H           -0.63058928740320       -2.25400708052836        1.32581214320050
H            0.35265998199370        1.67123107011544        1.22151804059759
H            2.77154461440607        1.62013643511303        1.21757696029613
H            4.51281013846201       -2.27708620489956       -0.46845960007726
H            6.46545465493762       -3.49531603067794       -0.52423949131316
H            7.89462655263544       -2.87626133357781        0.08956279666516
H            9.02308516673426       -1.12107850313842       -0.58075778516440
H            9.12216818196020        0.43823968839574        0.06223827701726
H            7.20006337465338        1.75144830084591        0.46139359742809
H            2.67443835937525       -1.90059110510639       -1.26855725386076
H            0.25835359934523       -1.85290732599583       -1.22479457846510
H           -3.53086833647187        0.53584995330089        1.26134663708237
H           -4.68930782253068        2.66367401225218        1.23202877895570
H           -5.97696417056889        4.33121395038824        0.35841252183830
H           -5.69382964372272        6.04024037613175        0.66740047801420
H           -5.05096402062933        4.84109056722468        1.78278152574278
H           -3.42514692636551        5.40412900671507       -2.16989927161154
H           -4.97552694808306        4.59141449418371       -1.96125630197757
H           -4.82074884906510        6.31221115402057       -1.59480500710260
H           -2.08849098881066        6.13415881955187       -0.11577170467167
H           -3.47878733830848        7.05047774790555        0.46013351421690
H           -2.73095019417340        5.83144083101643        1.49624440995535
H           -1.65970447857957        4.27047228982377       -1.32798911851937
H           -0.51261436548460        2.13140457832792       -1.31186467344732
H           -3.55222141004315       -0.53373747628060       -1.27487828258489
H           -4.81497369061850       -2.60854831101418       -1.22720007499264
