73
 energy: -100.671874528104 gnorm: 0.000044245697 xtb: 6.7.1 (edcfbbe)
C           -5.65585419738724       -4.66498800559149        0.50154397833339
C           -4.24197581175958       -4.94745209309209       -0.02881224871281
C           -4.32193568714349       -5.44338287001316       -1.48088596822422
C           -3.62579438520521       -6.06079703036031        0.82370715527691
C           -3.43049546632329       -3.66330422034224        0.00922447857490
C           -2.24414909380111       -3.53309592567729        0.72664972225101
C           -1.53111115991634       -2.35095876255794        0.73739464021358
C           -1.98421525847152       -1.24136913625881        0.02252773562128
N           -1.26295948536296       -0.04633427626100        0.02410164852752
C            0.12197205758613       -0.07153400860715        0.02974375835364
C            0.86861084554784        0.91524464951280        0.71157548151048
C            2.22978710531922        0.89554432300022        0.70815690297252
C            2.97734474981663       -0.11246280325024        0.02213701443327
C            4.38792033055510       -0.14030067464610        0.01922662751963
C            5.09618207137626       -1.34124023291045       -0.23672286004054
C            6.45692741440358       -1.45397880096749       -0.18283292645642
N            7.11114969932801       -2.66114105378020       -0.43751547192953
C            7.25415001102479       -0.28558646857322        0.08825092759091
N            8.63259743977251       -0.39636665440958        0.13721038847699
C            6.61011102094058        0.90288643389698        0.34798667235677
C            5.21353427508255        1.02818821614498        0.31927097446312
C            4.73333425846971        2.32006705408173        0.46501404758981
N            4.44640705871779        3.44162763851001        0.57524902931676
C            2.19623729118786       -1.10571698410877       -0.65332947071729
C            0.83568298439811       -1.08363757735366       -0.65138197279136
C           -1.94148600299900        1.17320972712265        0.02474590407100
C           -3.13335592552465        1.32907692857599        0.73412335025569
C           -3.79629276703458        2.53985079893814        0.73706383278046
C           -3.30568712930866        3.64200699038166        0.04144234901156
C           -4.00546534633520        4.99052983552318        0.02144934554962
C           -5.29369146125515        5.00020472474171        0.85012141309143
C           -4.36621611663404        5.34501541192865       -1.42943929921926
C           -3.05739223945112        6.05433000918536        0.59558862121607
C           -2.11264293858237        3.47290777187440       -0.66394677591933
C           -1.43932477254151        2.27160337683611       -0.67820056007538
C           -3.17277007546932       -1.35988266297158       -0.70282596058529
C           -3.87201207641318       -2.54637714209676       -0.70304940467792
H           -5.60733494888401       -4.28954802985894        1.52188234211473
H           -6.17047845622245       -3.92855157529865       -0.10919155077633
H           -6.24434211230496       -5.57998441917091        0.49846202751866
H           -4.88442216496275       -6.37347681405348       -1.52667305074314
H           -4.81304471289968       -4.71678549476407       -2.12224206203937
H           -3.32291304190187       -5.62467563336602       -1.87272665744759
H           -3.56532126983157       -5.76613292857952        1.86899520353350
H           -2.63213756405731       -6.32334146957676        0.46776798766063
H           -4.24936922732765       -6.95046168683463        0.76175238409067
H           -1.85822550700562       -4.35839621300616        1.30187396919252
H           -0.62279563709652       -2.27144239709350        1.31680605711062
H            0.34295384183348        1.67395194605817        1.27388147241028
H            2.76187613088640        1.63572580964427        1.28323521605936
H            4.52865924323997       -2.24215641445156       -0.41729352590953
H            6.48534473887720       -3.45436684466373       -0.46730548686083
H            7.90853966127041       -2.83481496971735        0.15949265447881
H            9.03570013934387       -1.07246541364983       -0.49520880618380
H            9.12649676697555        0.48405486265096        0.15598051061123
H            7.19786850716792        1.78843585734450        0.55476072802810
H            2.69801853448522       -1.86059628137458       -1.23795931562330
H            0.28167608971447       -1.82373878575350       -1.21152768479990
H           -3.52847820302115        0.49679287888551        1.29815781401620
H           -4.70816358862644        2.61312558232577        1.30618531576167
H           -6.01284693360198        4.28060802335697        0.46549533541409
H           -5.74777927319233        5.98776646373554        0.79940055649725
H           -5.08895113657722        4.77924956735366        1.89523045685210
H           -3.47916049624630        5.41732315197645       -2.05258775562789
H           -5.01969248319257        4.58412189137353       -1.85188039928318
H           -4.88381879746373        6.30132816037916       -1.46187450872354
H           -2.14708431883937        6.13577570397388        0.00796742636493
H           -3.54669088572666        7.02603011456921        0.60170170530827
H           -2.78052442873614        5.80108017301066        1.61726993212635
H           -1.69504125952241        4.29461524705528       -1.22522264754865
H           -0.52524005864070        2.16767973764927       -1.24453187991788
H           -3.53126147432976       -0.51754665891548       -1.27618811358354
H           -4.78081283504057       -2.60076064773630       -1.28243575196259
