73
 energy: -100.758521145814 gnorm: 0.000049157053 xtb: 6.7.1 (edcfbbe)
C           -4.34158403410900       -5.22025269380537       -0.94610830565090
C           -3.08005162803526       -5.15969138416335       -0.07949344025508
C           -2.07232965249880       -6.18038344005814       -0.62933514254864
C           -3.46903073692831       -5.53661221622770        1.35797950138542
C           -2.43722924516375       -3.78103446085286       -0.07627166147000
C           -1.28075355297750       -3.56118245816058        0.67024958907931
C           -0.66024886980601       -2.32988823888808        0.70668236965172
C           -1.17421752349369       -1.25845166445513       -0.02156278504633
N           -0.55012445630968       -0.00313317182554        0.00618846076061
C            0.83881614619437        0.09364135694260        0.00740770310718
C            1.48093767271787        1.13282485440119        0.68534116245234
C            2.85479042165899        1.23870871137423        0.66985063600836
C            3.63913234147322        0.30576075662825       -0.00700156451335
C            5.10223723165369        0.41235072226310       -0.02383977412646
C            5.89318180311327       -0.70514448302486        0.21703212689370
C            7.27984014892090       -0.64371412540810        0.23258849734746
N            8.04216740827327       -1.77831713851113        0.45326739050133
C            7.92127272944751        0.58398382137673       -0.05241036090923
N            9.31370299917056        0.65721546043258       -0.01797250734152
C            7.14517517140782        1.70277352446575       -0.28644256583608
C            5.74711502821160        1.63480245416124       -0.26734760094175
C            5.03069004025597        2.80541209569615       -0.57418235613413
N            4.50007359228625        3.78657570441620       -0.85653099676188
C            2.99685278563574       -0.74324477452073       -0.66444700944070
C            1.62271836795098       -0.84505591832636       -0.66832696486210
C           -1.33946041396283        1.15679212482876        0.01682205515138
C           -2.51805088355199        1.20702502499910        0.75833055336997
C           -3.29475012866306        2.34688791195934        0.75889690463919
C           -2.93562303598596        3.48259522986040        0.03497548378896
C           -3.82464344245905        4.71613013377463        0.07937435045433
C           -3.29034345368877        5.85974918273987       -0.78831197439428
C           -3.91253994916724        5.21579131474891        1.52936293206296
C           -5.22657900212020        4.34642364111347       -0.42797081859634
C           -1.75602137389341        3.42072607690912       -0.69841330764931
C           -0.97206981637465        2.28201430742008       -0.71487092855911
C           -2.32868289387049       -1.46483776196756       -0.77057621329891
C           -2.94584435021695       -2.70192596765812       -0.79024007398389
H           -4.75673457693871       -6.22568875071225       -0.91144560315921
H           -5.10022661988219       -4.53115629320999       -0.58174886135704
H           -4.11553025377057       -4.98631685561415       -1.98403609857124
H           -1.77692620356011       -5.90945201936959       -1.64126887486838
H           -1.17782715737954       -6.22510172512489       -0.01407840004861
H           -2.51924956723805       -7.17216723337256       -0.65410729094651
H           -4.16158149485213       -4.80226887014071        1.76503747712612
H           -2.59825516061432       -5.57914517255587        2.00647717734971
H           -3.95195292244588       -6.51158514633236        1.37189911443716
H           -0.85007768280125       -4.36417722590714        1.24948023955543
H            0.22929539033684       -2.18916242718667        1.30399221395270
H            0.89222298020856        1.85752112034920        1.22819343170825
H            3.32934895310891        2.04305318082077        1.21341231861925
H            5.41214102334864       -1.64855627374309        0.43210291612376
H            7.52892747489020       -2.56413737515691        0.82475997312989
H            8.92119883695592       -1.62091087722230        0.92369460074762
H            9.78123985643322       -0.13849277025356       -0.43012218188613
H            9.67885642674985        1.53069123067628       -0.37119611061405
H            7.62130843973447        2.65039529955262       -0.49805748855839
H            3.58460325407064       -1.46695473884343       -1.21039749059730
H            1.14260747056063       -1.64937170767830       -1.20624553410530
H           -2.82039519470240        0.34531122831833        1.33614707793253
H           -4.19842617295199        2.34533022993039        1.34973995992261
H           -2.30927147154124        6.18443880367817       -0.44880504729332
H           -3.96646471746986        6.71011061781889       -0.72290359320692
H           -3.22548884888055        5.56160534010555       -1.83237604310844
H           -4.35107469461428        4.46493344955963        2.18103964496296
H           -2.91957292878986        5.45566473937289        1.90501712588153
H           -4.52674609624138        6.11253677838587        1.57985044140643
H           -5.68448889868000        3.58108531765583        0.19257985321596
H           -5.87098292865121        5.22309537207866       -0.41813930076116
H           -5.17020805748750        3.97060077470972       -1.44783584199968
H           -1.42541542118006        4.26442896522762       -1.28188574832953
H           -0.06364990754865        2.26527860283816       -1.30041564136453
H           -2.74347657198868       -0.64758302670841       -1.34310155087157
H           -3.83625000127761       -2.80917007462158       -1.38795022875523
