  73
       -100.71780094
 C         -5.6754619141       -4.6491499901        0.4635838473
 C         -4.2790063566       -4.9351403920       -0.1066885468
 C         -4.3980705431       -5.3849061359       -1.5698686140
 C         -3.6613827432       -6.0835721439        0.6956251930
 C         -3.4487385997       -3.6633856863       -0.0428151442
 C         -2.2663694086       -3.5616711376        0.6805244187
 C         -1.5409251524       -2.3859693203        0.7188739343
 C         -1.9703903501       -1.2614200498        0.0196362344
 N         -1.2386532963       -0.0702436120        0.0517117746
 C          0.1545019880       -0.0992376106        0.0563384208
 C          0.8837583439        0.8663762689        0.7529368474
 C          2.2613059813        0.8500600922        0.7401231362
 C          2.9600340223       -0.1355514594        0.0449460090
 C          4.4260379056       -0.1566989145        0.0279921687
 C          5.1169976929       -1.3462634435        0.2270815833
 C          6.5033213169       -1.4059482697        0.2379281431
 N          7.1669812147       -2.6083037151        0.4163621464
 C          7.2478640759       -0.2294106756       -0.0077500102
 N          8.6398932314       -0.2787200972        0.0212236335
 C          6.5709297438        0.9599536942       -0.1979805615
 C          5.1733579913        1.0127264616       -0.1750874349
 C          4.5595569010        2.2517876268       -0.4385054650
 N          4.1158903260        3.2837905077       -0.6839218384
 C          2.2291748908       -1.1106255115       -0.6323428976
 C          0.8513999721       -1.0909886639       -0.6368770594
 C         -1.9138046262        1.1565072396        0.0655384658
 C         -3.0971270107        1.3106639260        0.7813683557
 C         -3.7659315111        2.5203405121        0.7872159884
 C         -3.2811822240        3.6217196533        0.0921573822
 C         -3.9798632396        4.9715161104        0.0792261097
 C         -5.2718869694        4.9749916990        0.9006582460
 C         -4.3326650975        5.3410661748       -1.3685133554
 C         -3.0342778725        6.0277624957        0.6682451140
 C         -2.0933484489        3.4559610387       -0.6174555440
 C         -1.4208632965        2.2527182657       -0.6399755149
 C         -3.1542766271       -1.3528990632       -0.7106082587
 C         -3.8731298797       -2.5290505670       -0.7320755705
 H         -5.5976495227       -4.3105465458        1.4946970733
 H         -6.1863966208       -3.8804203407       -0.1092963793
 H         -6.2824866228       -5.5517250298        0.4410737552
 H         -4.9758436802       -6.3045045013       -1.6338188510
 H         -4.8906763468       -4.6309609821       -2.1772901588
 H         -3.4104110582       -5.5674365010       -1.9882598883
 H         -3.5833226468       -5.8270631581        1.7495458267
 H         -2.6747120834       -6.3388115533        0.3161080935
 H         -4.2928560728       -6.9656391479        0.6105874423
 H         -1.8907315261       -4.4026791022        1.2400605933
 H         -0.6314397157       -2.3344841419        1.2997126762
 H          0.3590647087        1.6298822733        1.3069547682
 H          2.8044215422        1.5982176534        1.2971959485
 H          4.5560540092       -2.2516101725        0.4131817819
 H          6.5887500153       -3.3621838304        0.7562690751
 H          8.0530974040       -2.5431526445        0.8948881446
 H          9.0382086124       -1.0991572549       -0.4130917832
 H          9.0816845151        0.5705887983       -0.3005159403
 H          7.1269725770        1.8694597218       -0.3792733192
 H          2.7513056952       -1.8723554715       -1.1932243247
 H          0.3014770692       -1.8387067911       -1.1891319167
 H         -3.4938015672        0.4745469389        1.3387771914
 H         -4.6773399177        2.5883369220        1.3581903524
 H         -5.9861974305        4.2546345478        0.5087920011
 H         -5.7286648061        5.9614655113        0.8532883778
 H         -5.0718255376        4.7475799076        1.9450755486
 H         -3.4419839627        5.4165572814       -1.9855845436
 H         -4.9844260063        4.5848512706       -1.8012338420
 H         -4.8484211869        6.2985723930       -1.3960820336
 H         -2.1205525083        6.1081784372        0.0864434104
 H         -3.5192070839        7.0015925482        0.6793887213
 H         -2.7656186343        5.7636020291        1.6889689920
 H         -1.6772349717        4.2801527973       -1.1759516906
 H         -0.5057698944        2.1560631413       -1.2050296307
 H         -3.5049165372       -0.4938569328       -1.2635653392
 H         -4.7838155775       -2.5574873861       -1.3110374989
