  44
  -74.1248268728000       0.733446185583295      !
 O          3.7359377972        2.4071793781        1.3400081585
 C          3.3906381344        1.3955427665        0.7560914554
 C          4.3741365007        0.4565277148        0.1710740943
 C          5.7302325162        0.7458748914        0.2973811617
 C          6.6851091301       -0.0994867586       -0.2373312620
 C          6.2946344216       -1.2494388410       -0.9080477236
 C          4.9512520594       -1.5484163763       -1.0398272696
 C          3.9798970929       -0.7053046605       -0.5049799164
 C          2.5568889529       -1.0689859035       -0.6700470499
 O          2.2108109355       -2.0863384851       -1.2401405405
 C          1.5733079179       -0.1245305448       -0.0918285305
 C          0.2226864472       -0.4104134773       -0.2368465663
 C         -0.7478493559        0.4398340740        0.2880106588
 N         -2.0987103772        0.1456063263        0.1352961023
 C         -2.6924191615       -1.0880945041        0.3534903966
 C         -2.1335039786       -2.2715420671        0.8123149053
 C         -2.9718264370       -3.3579627756        0.9809237216
 C         -4.3356384928       -3.2738204461        0.7136638926
 C         -4.9021936484       -2.0898783386        0.2846386264
 C         -4.0793579104       -0.9861486471        0.1068047119
 C         -4.3283322793        0.3721476470       -0.2925231891
 C         -5.4724492530        1.0534457905       -0.6842667858
 C         -5.3600922053        2.3816588087       -1.0451787885
 C         -4.1239914035        3.0221201670       -1.0376620278
 C         -2.9713814720        2.3634977421       -0.6513068727
 C         -3.0833986094        1.0384702728       -0.2571037908
 C         -0.3465920577        1.5930291895        0.9692377318
 C          0.9933207634        1.8824440121        1.1077048833
 C          1.9713858203        1.0373720307        0.5834167782
 H          6.0116710886        1.6464392455        0.8230300773
 H          7.7335576305        0.1366385376       -0.1327312320
 H          7.0381082379       -1.9111537879       -1.3268087274
 H          4.6245709477       -2.4382409023       -1.5575279024
 H         -0.0589729273       -1.2941154556       -0.7900514304
 H         -1.0821970761       -2.3479770415        1.0431673778
 H         -2.5583182760       -4.2917763637        1.3313369917
 H         -4.9564820275       -4.1456470413        0.8554715849
 H         -5.9623501374       -2.0169825824        0.0955870764
 H         -6.4263304224        0.5491796274       -0.7108917878
 H         -6.2378035567        2.9314956926       -1.3499435158
 H         -4.0616637712        4.0552987288       -1.3453231373
 H         -2.0166978821        2.8666765614       -0.6746173425
 H         -1.0925258723        2.2404552376        1.4044180641
 H          1.3166236118        2.7669112310        1.6364094074
  44
  -74.1238703589000       0.266553814416705      !
 O          3.8894782602        0.1483520566        2.5707939071
 C          3.4672048174        0.1498706069        1.4288626960
 C          4.3552546819        0.3685341217        0.2635130497
 C          5.6702462983        0.7666372796        0.4867611324
 C          6.5253606635        1.0010198551       -0.5749111446
 C          6.0810196981        0.8204733792       -1.8765097832
 C          4.7816712038        0.4097858494       -2.1111199091
 C          3.9056889995        0.1906705674       -1.0510987237
 C          2.5148012226       -0.2108461088       -1.3489953351
 O          2.1492136381       -0.5091853783       -2.4696080933
 C          1.5819574922       -0.1825332144       -0.1990592578
 C          0.2228385708       -0.2977000761       -0.4500157549
 C         -0.7049983965       -0.2182389970        0.5871219361
 N         -2.0655694469       -0.2287157512        0.3012932066
 C         -3.0532533375       -0.9214102752        0.9831900206
 C         -2.9417498288       -1.8357329824        2.0202189339
 C         -4.1032799284       -2.4107130734        2.5025522637
 C         -5.3484824840       -2.0991104236        1.9634888641
 C         -5.4622506897       -1.2161918438        0.9077950026
 C         -4.3096015388       -0.6262533225        0.4082299304
 C         -4.0648261363        0.2953892894       -0.6673896654
 C         -4.8970807426        0.9486446251       -1.5662123171
 C         -4.3322559629        1.8176959948       -2.4785641737
 C         -2.9603780964        2.0541260537       -2.4842268936
 C         -2.1132325754        1.4160218373       -1.5974990102
 C         -2.6703155097        0.5139796934       -0.7031154574
 C         -0.2455487530       -0.0944624732        1.9016113572
 C          1.1070840152       -0.0157786526        2.1557773405
 C          2.0375841310       -0.0277406487        1.1170742077
 H          5.9984095959        0.8947706679        1.5076829280
 H          7.5390876212        1.3233045274       -0.3892718249
 H          6.7479851844        0.9998246966       -2.7065615307
 H          4.4150920078        0.2588871951       -3.1157850266
 H         -0.1009858221       -0.4565448637       -1.4677786271
 H         -1.9822424799       -2.1075360374        2.4329346391
 H         -4.0412989491       -3.1215168740        3.3130901949
 H         -6.2326916766       -2.5664301097        2.3704305475
 H         -6.4238769443       -0.9899801672        0.4728596257
 H         -5.9632116101        0.7819314126       -1.5439232829
 H         -4.9598957131        2.3326737998       -3.1902068252
 H         -2.5463960798        2.7546244747       -3.1939894795
 H         -1.0557993118        1.6307593532       -1.6012464682
 H         -0.9558081483       -0.0247462706        2.7111143754
 H          1.4739153680        0.0922937240        3.1657742638
