153
 energy: -224.280105438512 gnorm: 0.000129133822 xtb: 6.7.1 (edcfbbe)
C           13.04473939839371       -3.22197666712876       -2.81206534405247
C           12.57304344953210       -3.15450878069752       -1.35244521986636
C           12.75282845794840       -4.52541982437945       -0.68473694968053
C           13.45689399918060       -2.14529455944980       -0.61383567147424
C           11.09915065885973       -2.78144657623394       -1.32485571625570
C           10.17215619082702       -3.60818498928377       -1.96554032756434
C            8.82642457159793       -3.31021090118491       -1.93981625293550
C            8.37022403060524       -2.16785555915256       -1.28743631330462
C            9.26835538741258       -1.27972280942966       -0.66002461485367
C           10.62153909172152       -1.64791158744259       -0.68967056349054
B            8.67031030505349       -0.01785306290326        0.00291146340429
C            9.29832596452758        1.23043558698707        0.66380153476076
C           10.65938227205111        1.56867622467022        0.68847583375342
C           11.16426016082648        2.69109709075026        1.32227990320467
C           12.64607696000643        3.03171718117724        1.34388394080922
C           13.12571314378176        3.08539701209106        2.80146901180914
C           12.85292231080302        4.39990127075921        0.67841136932662
C           13.50416925654464        2.00510011576063        0.59890130684890
C           10.25820317889915        3.53739068129805        1.96737642836099
C            8.90610505405499        3.26931647685569        1.94638296049613
C            8.42230001763622        2.13803021329743        1.29459936665606
O            7.06149527516085        2.01063589550027        1.32156562632038
C            6.42839930795876        1.01200322239173        0.66269949219334
C            5.03869855358639        1.03321798809531        0.67486287582965
C            4.33949378236236        0.03298800228246        0.00578131870989
N            2.91482126812794        0.05049401651343        0.00407575462493
C            2.25629268867768        0.89804725250031       -0.86560581325545
C            2.98377514608101        1.71391751619000       -1.74084923605568
C            2.33754804362634        2.56930281362157       -2.60660769029789
C            0.95258154424768        2.63134244755432       -2.62630013671629
C            0.22708745326254        1.81784293086012       -1.77640176757811
C            0.85810071798636        0.95051717620346       -0.89836173353764
C           -0.00041814943713        0.07344386146286       -0.01184919823960
C            0.83449287134631       -0.80914616594405        0.89211467049625
C            0.18091715790192       -1.66014692424656        1.76963487853796
C            0.88471620326232       -2.48058136734466        2.63102772726248
C            2.27067867632044       -2.44292531063177        2.62308789881295
C            2.93913760085314       -1.60415598418932        1.75799770813609
C            2.23359164771028       -0.78088161091195        0.87178408693644
C           -0.85459140292851        0.96347363813197        0.86602550804496
C           -0.21932090721897        1.84017924045444        1.73159433877118
C           -0.94071762221812        2.66497871551453        2.57405291472479
C           -2.32583847113606        2.60488705702211        2.55974163685736
C           -2.97626701755585        1.74029743432681        1.70636981498297
C           -2.25297448945119        0.91297076990067        0.83843976725179
N           -2.91572190815249        0.05647282503816       -0.01916718472358
C           -4.34037303099957        0.03845755630679       -0.01408500599253
C           -5.01106232656839       -0.97318149574016        0.66691976972238
C           -6.40084482900405       -0.98741902515969        0.66078125805810
C           -7.14677265866012        0.00100283712592       -0.00237967415068
C           -6.43302230272687        1.00880068148536       -0.67185818271965
C           -5.04343984972114        1.03164554013732       -0.68968103962920
O           -7.07032755437500        2.00048530605477       -1.33731562648621
C           -8.43120209749279        2.12689857983308       -1.30472636483213
C           -8.91948628163857        3.25263493752095       -1.96267900288010
C          -10.27192216372992        3.51959224805004       -1.97800843367666
C          -11.17377439529834        2.67789801403393       -1.32108764919471
C          -12.65569893889051        3.01847525755112       -1.33548296092390
C          -13.14461639338298        3.06529683918191       -2.79021008731020
C          -12.85796824062968        4.38992338118791       -0.67530154412924
C          -13.50926596772903        1.99554719907445       -0.58028940260624
C          -10.66464160129405        1.56049072304198       -0.68184871897629
C           -9.30321193292478        1.22339979053983       -0.66265100501817
B           -8.67071772183562       -0.01925440663704        0.00421850067833
C           -9.26427108956962       -1.27823361799310        0.67631401973534
C          -10.61606814951987       -1.65135135646175        0.70744200661088
C          -11.08962961353771       -2.78207874951454        1.35059948688949
C          -12.56180250799028       -3.16184317171205        1.37838410904011
C          -13.03614949854832       -3.22024555950742        2.83752063517569
C          -13.44890760647191       -2.16260175333578        0.63018069984228
C          -12.73363548514340       -4.53877594085401        0.72100291813181
C          -10.15996396848915       -3.59974273248633        1.99906159873531
C           -8.81531966954278       -3.29695752026937        1.97190364113713
C           -8.36298168279971       -2.15840594524833        1.31029078406267
O           -7.00576702667144       -1.99580466296442        1.33126061209509
C           -2.23869140779335       -0.78356761045478       -0.88185137627682
C           -2.94848869998386       -1.61313088583410       -1.75876712832935
C           -2.28423195843820       -2.46031004798475       -2.61888083914057
C           -0.89836337008612       -2.50038982763345       -2.63097255724228
C           -0.19040518049529       -1.67394026846531       -1.77878999515365
C           -0.83973086121020       -0.81440429678537       -0.90644162414140
C            5.01418961076091       -0.98415444295147       -0.66292808410075
C            6.40399489702276       -0.99620527532126       -0.65165773675932
C            7.14621464213961       -0.00057758094318        0.00490378833255
O            7.01257876207343       -2.00975746112227       -1.31076366057389
H           12.89805066391855       -2.25982567909012       -3.29854738261774
H           12.49578543083899       -3.97362951775954       -3.37224196498264
H           14.10290563520454       -3.47238409223127       -2.85302806563265
H           12.19448473342746       -5.29693409757484       -1.20748902386187
H           12.40271024701192       -4.48995373457125        0.34487441618925
H           13.80390347928657       -4.80714771756028       -0.68313449108419
H           14.49553778559852       -2.46592463813709       -0.66833489131983
H           13.38717794918610       -1.15880745887392       -1.06624421900088
H           13.18172857585690       -2.07852088067549        0.43626129225575
H           10.49404277539905       -4.50008720786895       -2.48050681536378
H            8.10464987439909       -3.95672492751380       -2.41577839983229
H           11.31088632296029       -1.00657548258262       -0.17138577221811
H           11.33238353318556        0.91255832082931        0.16723829350385
H           12.96083387488608        2.12531907638307        3.28622196097059
H           12.59529609626045        3.84705703899190        3.36598211338592
H           14.18912885742281        3.31320364486369        2.83822198635678
H           12.31434150013194        5.18240552223506        1.20554345312381
H           12.49721790312644        4.37458133349964       -0.34958536956979
H           13.90995733548596        4.65829284458810        0.67236364685989
H           13.41563890971463        1.01947158165781        1.04989359379645
H           13.22209890413320        1.94625564134162       -0.44983950556548
H           14.54974164528188        2.30321018160964        0.64848657801642
H           10.60168052310337        4.42139326477171        2.48202381412868
H            8.20058907701963        3.93129659209513        2.42546033344412
H            4.51437421866626        1.82032527650545        1.19338906345758
H            4.06120217956199        1.66643329685478       -1.73632482549794
H            2.91838284751386        3.19044599464709       -3.27143109576371
H            0.44426546306223        3.30242290029698       -3.30084243122714
H           -0.85276533568636        1.84965915700078       -1.78975118085998
H           -0.89934946923496       -1.67395040163296        1.77356367367270
H            0.35888601208983       -3.13858197955110        3.30503745662768
H            2.83472039755137       -3.07012478138239        3.29662416733322
H            4.01724354042179       -1.57528641877445        1.76244976224324
H            0.86061163972671        1.87031659046069        1.74121337287479
H           -0.42912114280322        3.34326485807888        3.23884037238333
H           -2.90347334055109        3.23486850961210        3.21901361079043
H           -4.05377484833929        1.69442353336823        1.70595745299261
H           -4.46469227470645       -1.74197701368561        1.19013216878915
H           -4.52200414519744        1.81436190615829       -1.21767812645895
H           -8.21722558073990        3.91150412759616       -2.45073758932388
H          -10.61890373003756        4.39947106102879       -2.49734529862897
H          -12.98254361641671        2.10305706106918       -3.27160708013224
H          -12.61822320268155        3.82455891275723       -3.36166090220876
H          -14.20832250917013        3.29259051753347       -2.82115426678483
H          -12.49611557426647        4.36929077899812        0.35065612637660
H          -12.32205196120148        5.16956178370353       -1.20937858087536
H          -13.91481531724654        4.64891635113895       -0.66416035564782
H          -14.55520830231029        2.29303729589109       -0.62562818476446
H          -13.22137379939123        1.94235431862459        0.46716548843984
H          -13.42279150468481        1.00758213086007       -1.02656297478940
H          -11.33391965305161        0.90786488895593       -0.15141006561069
H          -11.30718096833556       -1.01658524754328        0.18335004501437
H          -12.89498094313149       -2.25368461535102        3.31684267955395
H          -12.48480663122823       -3.96495699757764        3.40458186016025
H          -14.09320522394666       -3.47532835475701        2.87829922984913
H          -14.48607884439248       -2.48796164281625        0.68470746089551
H          -13.38510264226174       -1.17236605233603        1.07523564622638
H          -13.17158641571334       -2.10243989840475       -0.41974821644922
H          -12.17261553833958       -5.30353907130446        1.25077912694664
H          -13.78332925621142       -4.82559546668483        0.71948130604228
H          -12.38161612981646       -4.50954620662738       -0.30815923309590
H          -10.47887580524211       -4.48866673988252        2.52097969201155
H           -8.09144592769535       -3.93703170613759        2.45334964884778
H           -4.02655086954501       -1.58244947346519       -1.76003664905180
H           -2.85151428411729       -3.09223098341511       -3.28524455606268
H           -0.37584310922953       -3.16498080074221       -3.30107874059738
H            0.88982598596372       -1.68964041193502       -1.78595327967329
H            4.47088117388812       -1.75855355276986       -1.18104742946996
