153
 energy: -224.280033884165 gnorm: 0.000072669011 xtb: 6.7.1 (edcfbbe)
C           13.05698101326166       -3.36552495634593       -2.61885759617323
C           12.54634199755633       -3.25824056792334       -1.17486290286877
C           12.68009712444295       -4.61802645688026       -0.47430486953921
C           13.42912300438727       -2.25074536075058       -0.43263882509175
C           11.07982198769873       -2.85684885428332       -1.19529304265999
C           10.15502036070604       -3.67720484090224       -1.84737310818032
C            8.81429448575970       -3.35626103534439       -1.86106262541158
C            8.36158826965482       -2.19662411513016       -1.23755680376099
C            9.25968978199091       -1.31301909457791       -0.60391894055169
C           10.60656547272912       -1.70427906807491       -0.59190794047989
B            8.66753073198636       -0.03141864054086        0.02439341530871
C            9.30093993752776        1.22206302240138        0.66892353391166
C           10.66415453272480        1.55125785949933        0.69244292185472
C           11.17377163318548        2.68105070505320        1.30914054433657
C           12.65725988523130        3.01443470598024        1.32793465306398
C           13.13370144636468        3.09916235499153        2.78506394575458
C           12.87219160374692        4.36606099482071        0.63182135997558
C           13.51210720217962        1.96670264928171        0.60907590968069
C           10.27069260093898        3.54325494502021        1.93722059159832
C            8.91676870105422        3.28398677316244        1.91562724043428
C            8.42791862516305        2.14587582805956        1.27986161046397
O            7.06588307433868        2.02821839838139        1.30056105010503
C            6.42955611789477        1.02924924222308        0.64485281638361
C            5.04017391822120        1.06279510818199        0.64274555451066
C            4.33858087028554        0.06431666461452       -0.02709091627504
N            2.91485559658407        0.09306903395000       -0.04213719625749
C            2.27016006349514        0.98439518975779       -0.87855748639995
C            3.01021899006974        1.82984650636036       -1.71443951056392
C            2.37744767661759        2.73033598367757       -2.54364904018157
C            0.99338599316267        2.80900206706294       -2.56640241973944
C            0.25522311388993        1.96390457921884       -1.75944041355051
C            0.87274395097623        1.05078454220916       -0.91896687225689
C           -0.00033673994161        0.13860183299336       -0.08435198631840
C            0.81943469600489       -0.79713345865229        0.77927801007252
C            0.15060159732972       -1.68797895759918        1.60427728114206
C            0.83908950290487       -2.55285487893568        2.43383710397534
C            2.22497537963734       -2.51722188687135        2.45002452404715
C            2.90829347856474       -1.63961860464942        1.63664210585588
C            2.21876388297572       -0.77447478353569        0.77794965394439
C           -0.85099130958138        0.98810053692019        0.83620842528896
C           -0.21223610804209        1.82608500271188        1.73685193685800
C           -0.93006647062556        2.60607374741318        2.62384389261047
C           -2.31488541965119        2.53819431164522        2.61974211157739
C           -2.96873487805206        1.71180891913409        1.73181679011377
C           -2.24931790662653        0.93158904343572        0.81826419199540
N           -2.91517012838177        0.11437229468299       -0.07459786841469
C           -4.33918634851527        0.07776987427395       -0.05044149352983
C           -4.98586283495769       -0.98203564205458        0.57849196620361
C           -6.37524678118943       -1.01580812434624        0.59147944221057
C           -7.14417861698716       -0.00032850329113       -0.00063956896679
C           -6.45429571258455        1.05570021825087       -0.61878025553251
C           -5.06554499057901        1.09929634167281       -0.65543221206055
O           -7.11485846946763        2.07613578074932       -1.21434315186563
C           -8.47665187280626        2.18115567170091       -1.15423545838832
C           -8.98988049893326        3.33750058829584       -1.73565146391760
C          -10.34583146268591        3.58556273008429       -1.71524376267219
C          -11.22624760566781        2.69292814823501       -1.09766461969652
C          -12.71270071104875        3.01230192814245       -1.07052053442759
C          -13.22376013925534        3.13975533086093       -2.51275452237228
C          -12.92375322869195        4.33827166171931       -0.32563128301939
C          -13.54092057507305        1.93336352265473       -0.36681164020914
C          -10.69253345937839        1.54646939935664       -0.53447819195549
C           -9.32658960517938        1.22834995399051       -0.55535490282984
B           -8.66744774943792       -0.04289192684235        0.02629992494722
C           -9.23374289054437       -1.34842035468762        0.62951642101714
C          -10.57969028098415       -1.74230664658994        0.65665039938993
C          -11.02830791799497       -2.91630030851924        1.23709596135340
C          -12.49462257609247       -3.31824018598090        1.26227558246773
C          -12.94630564467838       -3.47283280166370        2.72157651297638
C          -13.40623794275043       -2.28785831407505        0.58958253164968
C          -12.65752974156653       -4.65457545021427        0.52384605089991
C          -10.07815723568948       -3.75790206209084        1.82211950292301
C           -8.73831150345811       -3.43453198464185        1.79480039071002
C           -8.31134178689528       -2.25181838919814        1.19690197687444
O           -6.95630194418233       -2.07090374747139        1.20897087525956
C           -2.24171297166846       -0.66962874613078       -0.99123570618350
C           -2.95527198907978       -1.44719375965247       -1.91165438447516
C           -2.29459036925297       -2.23796828131887       -2.82650484451222
C           -0.90872700196982       -2.27197112255349       -2.85106841181155
C           -0.19717237794293       -1.49604481794718       -1.95547116491160
C           -0.84291682722515       -0.69335692900106       -1.02804330976686
C            5.01126238633597       -0.96378450774013       -0.68168044956898
C            6.40038141693864       -0.99098135618244       -0.65185919246141
C            7.14427644353982        0.00298857846216        0.00522295575396
O            7.00729514471341       -2.01734325877946       -1.29294007930997
H           12.94248457882190       -2.41135360524879       -3.12911002980006
H           12.50957292302005       -4.11856305132722       -3.17866139404832
H           14.11084632225762       -3.63649372830082       -2.62471235985489
H           12.12078969792849       -5.38924287101840       -0.99651252555328
H           12.30248857224212       -4.55395130642467        0.54415947698686
H           13.72482329299233       -4.92020376955997       -0.43746928144500
H           14.46251852424381       -2.59173388831784       -0.45216515771943
H           13.39044063258708       -1.27264937601068       -0.90651994601145
H           13.12699659239821       -2.15723312139432        0.60795885086858
H           10.47426163590476       -4.58287200590383       -2.33946197264286
H            8.09382381280020       -3.99856617592597       -2.34463380431574
H           11.29262644688194       -1.06595464252991       -0.06529386619873
H           11.33377856198494        0.88202001642552        0.18334612080467
H           12.96159751760384        2.15174533624874        3.29171146474979
H           12.60708532634891        3.87722110284540        3.33040725397182
H           14.19846138335621        3.32102395738122        2.81907210764231
H           12.33525022544161        5.16261612522822        1.13926444624377
H           12.51938166998657        4.31866146710908       -0.39640093545888
H           13.93034385687134        4.61975349061085        0.62305987981789
H           13.41558001046191        0.99177785197461        1.08123995025460
H           13.23399092280576        1.88650476119363       -0.43929720832871
H           14.55926223871191        2.25958719068525        0.65646832249883
H           10.61805059001802        4.43359510457671        2.43816162076194
H            8.21409647829195        3.95877402072697        2.38080841556312
H            4.51766035847964        1.85808245123052        1.15056954838446
H            4.08693838129705        1.76947022719626       -1.70966374748162
H            2.96832421195858        3.37373106525993       -3.17775709443496
H            0.49570296840279        3.51613012723937       -3.21138807616337
H           -0.82423342970187        2.00592024305984       -1.77758154416385
H           -0.92960693546829       -1.69745180596114        1.59276372228826
H            0.30160524754981       -3.24208641290656        3.06613448206700
H            2.77752611441613       -3.17636797344829        3.10223687549822
H            3.98606369729190       -1.61258998962085        1.66221564081299
H            0.86758632126789        1.86113535016315        1.73886637798891
H           -0.41585037878103        3.25484431673380        3.31552490229843
H           -2.88960588061295        3.13200817936705        3.31419284806474
H           -4.04589911993267        1.65938737959791        1.73966635015387
H           -4.42138174668247       -1.77284544095483        1.04680000941625
H           -4.56268318341919        1.91921381610433       -1.14348567084290
H           -8.30402284978982        4.03457091089571       -2.19301047268159
H          -10.71243039301131        4.49018963050317       -2.17519457309392
H          -13.05552679584352        2.21084740226391       -3.05381943216741
H          -12.71644061582958        3.93981572087011       -3.04440575017550
H          -14.29085204162157        3.35283325889356       -2.51501686808591
H          -12.54604545340175        4.26108929226608        0.69188360737369
H          -12.40684288793089        5.15649221992563       -0.81918409098424
H          -13.98377353362709        4.58059007392718       -0.28362016520247
H          -14.59136316617311        2.21791505158649       -0.37927516621422
H          -13.23673982670096        1.82105378091125        0.67132862813268
H          -13.44773462397438        0.97555503024895       -0.87340068489679
H          -11.34480868943015        0.85363511047139       -0.03472881080859
H          -11.28693518362574       -1.08741141183263        0.18109484464464
H          -12.81107689550482       -2.53554775013989        3.25742402557747
H          -12.37660498384966       -4.24290567959695        3.23397498108768
H          -13.99909221843484       -3.74512615446495        2.76142225937100
H          -14.43804265407078       -2.63063371875258        0.63894890533145
H          -13.34878889467379       -1.32590929996127        1.09363249076435
H          -13.14579219728080       -2.15962629390775       -0.45855788608778
H          -12.07861180765125       -5.44222988127518        0.99790408490313
H          -13.70318817846328       -4.95574036715473        0.51908385737083
H          -12.32094246302253       -4.55731820983730       -0.50630252978231
H          -10.37719677895999       -4.68119079308392        2.29372300701879
H           -7.99882999819171       -4.09182548370150        2.22678642997218
H           -4.03341009513215       -1.42036552933110       -1.90346024855822
H           -2.86470821879501       -2.83030255325820       -3.52599028645915
H           -0.38897967018973       -2.89290828934023       -3.56384434980171
H            0.88303828440261       -1.50735733383192       -1.97122686403121
H            4.46622390685820       -1.73623788931540       -1.20095573859433
