  153
       -224.27889648
 C         13.0357325270       -3.2505180987       -2.8227373258
 C         12.5727792253       -3.1522843590       -1.3620776367
 C         12.7569542992       -4.5088292069       -0.6667821253
 C         13.4607814962       -2.1266594560       -0.6515489490
 C         11.0986671485       -2.7804839471       -1.3308446267
 C         10.1702331680       -3.6098776116       -1.9658477560
 C          8.8243952494       -3.3124990864       -1.9371217095
 C          8.3691999756       -2.1694462340       -1.2852213353
 C          9.2682338571       -1.2810537904       -0.6593162212
 C         10.6218418737       -1.6474385636       -0.6941674806
 B          8.6707981190       -0.0216386078        0.0087483661
 C          9.2993687921        1.2244157976        0.6733997095
 C         10.6602480684        1.5640987598        0.6970325103
 C         11.1648359401        2.6855282046        1.3328801545
 C         12.6455379065        3.0313426574        1.3481621844
 C         13.1295880187        3.1068865650        2.8031986108
 C         12.8437160179        4.3914500252        0.6637476840
 C         13.5061089362        1.9983504038        0.6150866341
 C         10.2589961986        3.5288806251        1.9821311864
 C          8.9073045370        3.2588284506        1.9635322176
 C          8.4235553133        2.1292396386        1.3086688402
 O          7.0630798603        2.0013026426        1.3369006647
 C          6.4293429381        1.0057259309        0.6741102053
 C          5.0397395480        1.0282526343        0.6856673467
 C          4.3399322089        0.0309075587        0.0129247704
 N          2.9153306039        0.0499641690        0.0097114172
 C          2.2586972911        0.8975078357       -0.8612350669
 C          2.9879949894        1.7140567511       -1.7343295046
 C          2.3435602133        2.5691524049       -2.6017134228
 C          0.9586191311        2.6301929366       -2.6252862355
 C          0.2313499121        1.8164399869       -1.7771170302
 C          0.8605207001        0.9496264788       -0.8973255068
 C          0.0001608164        0.0732091725       -0.0119154739
 C          0.8332138208       -0.8095661924        0.8934856382
 C          0.1778846332       -1.6604579452        1.7697489383
 C          0.8799724977       -2.4815513213        2.6319255973
 C          2.2659878524       -2.4448882001        2.6258526721
 C          2.9361895413       -1.6061247445        1.7621580418
 C          2.2323875808       -0.7818455314        0.8754408897
 C         -0.8547466780        0.9643544264        0.8641076252
 C         -0.2200394921        1.8386850595        1.7324785454
 C         -0.9420109616        2.6648977985        2.5730410165
 C         -2.3272285638        2.6086857447        2.5537934767
 C         -2.9770886275        1.7463846024        1.6976873573
 C         -2.2531730777        0.9174622349        0.8317822104
 N         -2.9152453016        0.0630207211       -0.0283762341
 C         -4.3398640278        0.0438222277       -0.0232978360
 C         -5.0090432476       -0.9700716722        0.6560500529
 C         -6.3986699989       -0.9856406814        0.6513741042
 C         -7.1462423461        0.0038787727       -0.0086257932
 C         -6.4339889246        1.0139229454       -0.6767853694
 C         -5.0445601855        1.0379273960       -0.6961292127
 O         -7.0734154149        2.0064395604       -1.3392146192
 C         -8.4342477864        2.1312423863       -1.3048918921
 C         -8.9249252598        3.2571712841       -1.9608439522
 C        -10.2778100122        3.5223697764       -1.9741425593
 C        -11.1777705278        2.6790172128       -1.3166866719
 C        -12.6602461679        3.0172596687       -1.3292495308
 C        -13.1506743186        3.0641269873       -2.7834597935
 C        -12.8642680156        4.3878576571       -0.6679846799
 C        -13.5113585184        1.9924166743       -0.5738509145
 C        -10.6663794813        1.5616192066       -0.6793177021
 C         -9.3044915412        1.2257964277       -0.6629580213
 B         -8.6697385254       -0.0174539946        0.0001580732
 C         -9.2615123401       -1.2780903583        0.6701361480
 C        -10.6132583988       -1.6515469499        0.7022920132
 C        -11.0858414407       -2.7831766208        1.3444134890
 C        -12.5582997182       -3.1614610915        1.3750771477
 C        -13.0304518483       -3.2114631087        2.8352426933
 C        -13.4448543039       -2.1649513274        0.6225820450
 C        -12.7331054374       -4.5413952283        0.7250148954
 C        -10.1552058757       -3.6015727612        1.9906371885
 C         -8.8105009961       -3.2988805643        1.9617186627
 C         -8.3590670983       -2.1592650625        1.3011895529
 O         -7.0020843231       -1.9961426925        1.3203338953
 C         -2.2374061717       -0.7796865192       -0.8877361159
 C         -2.9462903232       -1.6084252906       -1.7662473263
 C         -2.2812918114       -2.4587402314       -2.6226280346
 C         -0.8954852491       -2.5028462105       -2.6295276798
 C         -0.1883391348       -1.6768988742       -1.7762033133
 C         -0.8384438962       -0.8142335072       -0.9075404136
 C          5.0141944339       -0.9851522018       -0.6579685855
 C          6.4038737862       -0.9984992480       -0.6461462897
 C          7.1469453953       -0.0049569463        0.0129613994
 O          7.0117771201       -2.0111656683       -1.3070942097
 H         12.8803406339       -2.3007541058       -3.3303581505
 H         12.4887934245       -4.0183584142       -3.3624398483
 H         14.0951330030       -3.4954919591       -2.8643152062
 H         12.1917154313       -5.2898326046       -1.1677300925
 H         12.4167478213       -4.4506623147        0.3650904194
 H         13.8075080651       -4.7924514816       -0.6692555731
 H         14.5002161758       -2.4431599666       -0.7135196002
 H         13.3799740757       -1.1483759987       -1.1196850752
 H         13.1987659036       -2.0433074661        0.4006402954
 H         10.4909582035       -4.5033127641       -2.4788507026
 H          8.1017697274       -3.9601763777       -2.4100937253
 H         11.3122392641       -1.0049617603       -0.1786894490
 H         11.3333882615        0.9103821316        0.1729685899
 H         12.9683245817        2.1536831463        3.3024002852
 H         12.6003401777        3.8758182681        3.3587642530
 H         14.1926829003        3.3371801711        2.8328858406
 H         12.3010035624        5.1775232170        1.1813501235
 H         12.4863255457        4.3501737363       -0.3631188221
 H         13.8992080444        4.6558481790        0.6523121383
 H         13.4167529367        1.0170406827        1.0752291329
 H         13.2272272320        1.9291574338       -0.4338119644
 H         14.5513417115        2.2976395308        0.6645267046
 H         10.6021660704        4.4126763418        2.4972815299
 H          8.2018391578        3.9184972466        2.4457790239
 H          4.5160209734        1.8142160975        1.2065719312
 H          4.0654393175        1.6671918271       -1.7270374899
 H          2.9258175858        3.1904712802       -3.2651270389
 H          0.4516257504        3.3006143177       -3.3014814585
 H         -0.8484759553        1.8477559115       -1.7932538777
 H         -0.9024020386       -1.6736340813        1.7720292157
 H          0.3527910578       -3.1392743984        3.3051473778
 H          2.8286528713       -3.0726368109        3.3000281976
 H          4.0143061968       -1.5779021877        1.7681079932
 H          0.8599442476        1.8654949351        1.7460774313
 H         -0.4308420824        3.3411849241        3.2401936643
 H         -2.9054495994        3.2401158300        3.2111693013
 H         -4.0547363606        1.7039293876        1.6932131725
 H         -4.4614251083       -1.7395075574        1.1770157228
 H         -4.5241504592        1.8219712645       -1.2231405216
 H         -8.2242857833        3.9174553764       -2.4492806380
 H        -10.6266201971        4.4022924080       -2.4921266169
 H        -12.9851707029        2.1032052557       -3.2663138285
 H        -12.6277549794        3.8262951502       -3.3542598988
 H        -14.2153043349        3.2872476029       -2.8131676554
 H        -12.5019224193        4.3672349859        0.3577543130
 H        -12.3298836923        5.1686852749       -1.2017697223
 H        -13.9214871413        4.6451876536       -0.6561381316
 H        -14.5578536537        2.2880527679       -0.6183342296
 H        -13.2226529126        1.9393475743        0.4733642081
 H        -13.4234413164        1.0048573096       -1.0206480467
 H        -11.3340631952        0.9082596519       -0.1478375050
 H        -11.3048351573       -1.0162805268        0.1795400289
 H        -12.8868867142       -2.2426793167        3.3092823858
 H        -12.4791750118       -3.9540875871        3.4050735006
 H        -14.0878263738       -3.4645897604        2.8790631582
 H        -14.4819118435       -2.4908861262        0.6760648998
 H        -13.3826986715       -1.1735271261        1.0651112498
 H        -13.1655865407       -2.1073793142       -0.4269578600
 H        -12.1739152947       -5.3047518358        1.2586893636
 H        -13.7834465338       -4.8258214263        0.7252450899
 H        -12.3812808204       -4.5184620280       -0.3043799437
 H        -10.4735251444       -4.4907842265        2.5124066188
 H         -8.0859397754       -3.9395853164        2.4412767217
 H         -4.0242568890       -1.5747133655       -1.7714609020
 H         -2.8478460964       -3.0899804934       -3.2902610696
 H         -0.3724278223       -3.1699021660       -3.2967519438
 H          0.8918746012       -1.6952222547       -1.7796853404
 H          4.4703688998       -1.7576424982       -1.1783971224
