153
 energy: -224.367345089316 gnorm: 0.000047134512 xtb: 6.7.1 (edcfbbe)
C           13.36083210694625       -3.72565620474430       -2.09141296223387
C           12.86005411485396       -2.51281598462365       -1.30273031265893
C           13.31038604502570       -2.67097132579714        0.15650238973214
C           13.49637065841012       -1.25369886595324       -1.90888726806398
C           11.34516487030030       -2.37513553506114       -1.34106188200090
C           10.51655909761390       -3.28076769915577       -2.00422369639518
C            9.14824995182996       -3.12962427650494       -1.98474663193507
C            8.56223269110483       -2.05651240632778       -1.31542883977277
C            9.35879282197114       -1.09282683611360       -0.67032771450948
C           10.74056034926008       -1.31153459826956       -0.69309645122518
B            8.62363913251597        0.09393533323380       -0.00307630083887
C            9.11278492149256        1.40802834888380        0.65024870958438
C           10.42633507465817        1.89941642582756        0.64508039998201
C           10.80957530699146        3.06860731971824        1.27167340288775
C           12.23869037046413        3.58932313298545        1.25615583338571
C           12.74271370853558        3.71529527177704        2.70077353277974
C           12.25924958522659        4.96514113747956        0.57559780189175
C           13.19688913495329        2.66643329234324        0.49735310172045
C            9.82089464533854        3.79535766251029        1.94350751059458
C            8.51370961931544        3.37361653774242        1.95395097288600
C            8.14801141996980        2.19489794986992        1.30155195003973
O            6.81664886917348        1.90850313929024        1.35166885056758
C            6.29093710987645        0.85931155452959        0.68372166271212
C            4.90805107692872        0.72042418377688        0.70161865071643
C            4.32333687673193       -0.33519585440246        0.01479956275397
N            2.91055593106313       -0.46539282067809        0.01547692958951
C            2.15730154212256        0.40687386704805       -0.75777939722853
C            2.78759850334856        1.33974602235837       -1.58576976972122
C            2.04938905971381        2.21449822207544       -2.35627993492075
C            0.66618468818986        2.17480704688643       -2.32721229771721
C            0.03726145540180        1.23942689983094       -1.52763842637943
C            0.76182080742400        0.35247844561159       -0.74654696498548
C            0.00090136785341       -0.65343949505529        0.09393336352203
C            0.93054429232504       -1.59502778241633        0.82941192711538
C            0.36671440824866       -2.60162840918271        1.59776138506980
C            1.15055763992832       -3.47263742160029        2.33046321213831
C            2.52631454589399       -3.32224418328174        2.30652087092600
C            3.10600230806936       -2.32668890422310        1.54678048853046
C            2.32011532983103       -1.45898477824803        0.78375443583901
C           -0.80755668226374        0.11121847326596        1.12224842125222
C           -0.12787891102034        0.81517422790363        2.10414468720521
C           -0.80302752467446        1.53197771562472        3.07383938242500
C           -2.18715282049141        1.53378958372302        3.06866517112626
C           -2.88096898402044        0.83867008052633        2.09947828385794
C           -2.20380258474502        0.13057834305165        1.10297943516997
N           -2.91301441859641       -0.56335245878758        0.13238773076595
C           -4.32552107717762       -0.43789800588204        0.09795305210005
C           -5.12427251826434       -1.48921737049617        0.52801978322365
C           -6.50705704039430       -1.35516053884529        0.47889841878967
C           -7.11011915351071       -0.17087854781923        0.02784536047227
C           -6.27171510783971        0.87569539567597       -0.38603042226756
C           -4.88828808684192        0.74412720848524       -0.36482083355624
O           -6.77500676075081        2.04640270349219       -0.83167671725337
C           -8.11121341368088        2.31174702713697       -0.79543179438911
C           -8.45598286223726        3.60380045336802       -1.19583265807620
C           -9.76747054135854        4.01089393995061       -1.17095821947020
C          -10.78182657541201        3.15316351699124       -0.73258879185886
C          -12.21703809276070        3.65539853003929       -0.69183436289985
C          -12.63991097644363        4.07685731605440       -2.10616832630922
C          -12.29694291267386        4.86021249848603        0.25615494878367
C          -13.20263396144100        2.59261361591669       -0.19753469744237
C          -10.41825728847930        1.87609483737078       -0.35330787742562
C           -9.09935196674803        1.39973782391862       -0.38764209447801
B           -8.62764520662053       -0.02502006185268       -0.00984987243926
C           -9.37967570924606       -1.33216886186335        0.33781397555755
C          -10.76166019216926       -1.54930384377356        0.23536642708940
C          -11.37986218709738       -2.73208566794805        0.59001871357158
C          -12.88040493463024       -2.95278627948763        0.47409951059878
C          -13.44713552142466       -3.27971906503293        1.86286168508917
C          -13.61990888595105       -1.72452705810013       -0.06423180901756
C          -13.13917148571617       -4.12489509458455       -0.48292217998293
C          -10.57020308956558       -3.76459411831126        1.07492676654435
C           -9.20812335585046       -3.61400436769281        1.16739959962436
C           -8.60439927412932       -2.41320094672532        0.79037929103882
O           -7.24547411262052       -2.40647781291548        0.89436091737538
C           -2.27687726303202       -1.36805973785898       -0.80291939744418
C           -3.01842225982846       -2.08180872435647       -1.74803207814024
C           -2.39231366545540       -2.89206849893553       -2.67316531296417
C           -1.01292914634806       -3.00529315910811       -2.68404425200280
C           -0.27244866201574       -2.28068974054361       -1.76943283632560
C           -0.88318246596429       -1.46061973092079       -0.83352403486624
C            5.09931574878343       -1.25712240780413       -0.67524394829246
C            6.48277607382574       -1.12193474494003       -0.66627079858402
C            7.10685199389346       -0.05985910976164        0.00633990275810
O            7.19919853919916       -2.04485026537562       -1.34308829554460
H           13.08318085178867       -3.65203762380746       -3.14037661458112
H           12.96443498690283       -4.65127671374242       -1.68058720283665
H           14.44654818745192       -3.77202751689647       -2.03420845649188
H           12.85285250529628       -3.55415409177144        0.59743038134765
H           13.02862503794941       -1.80869920809961        0.75457007948599
H           14.39167564811396       -2.78132773219668        0.20531040017107
H           14.58005752343992       -1.34968758501416       -1.91927252799481
H           13.15248108261182       -1.11354339459031       -2.93158139341172
H           13.24156168714409       -0.36475160179493       -1.33894796147556
H           10.92947702707581       -4.12354119275285       -2.53353430857841
H            8.50456488709093       -3.84212154999212       -2.47781823400018
H           11.35919864081185       -0.61242849926726       -0.15559078626981
H           11.15617979775998        1.32865197133902        0.09970779106993
H           12.70238149573967        2.74874473485554        3.19893084010183
H           12.14201305977782        4.41760467369522        3.27168272380265
H           13.77288979043484        4.06518086221393        2.70878214650379
H           11.63900217430077        5.68001069332588        1.10908745734083
H           11.88737697180108        4.88557136967398       -0.44386446897628
H           13.27529316919860        5.35291343634485        0.54346364021886
H           13.23759865921422        1.68178038882516        0.95804354630924
H           12.90190833313747        2.56489797926179       -0.54469010150612
H           14.19981366253656        3.08800626383512        0.52110532116352
H           10.07120614076392        4.71241122083714        2.45459443556479
H            7.74642949095771        3.94557783982217        2.45305778149801
H            4.29971710921477        1.43638155919340        1.23082368565010
H            3.86533360275152        1.37401968946153       -1.62779055476869
H            2.56095702741384        2.92815331505179       -2.98516786381933
H            0.08464911427183        2.85877061743794       -2.92605330006530
H           -1.04167035425282        1.18844222743360       -1.50622864289588
H           -0.70981453753415       -2.69376939243662        1.61941151312599
H            0.69371898607149       -4.25177893117053        2.92101685566575
H            3.15646254487180       -3.98155569653020        2.88510410159969
H            4.17920323440576       -2.21461593528224        1.54744294146642
H            0.95238716779765        0.79494277387633        2.10345910676740
H           -0.25628657141401        2.07659396766788        3.82820580482252
H           -2.73412589831234        2.07626561794624        3.82566261083010
H           -3.96001357516092        0.83833341478665        2.11482507755518
H           -4.68270181886597       -2.40503323629261        0.88724888259356
H           -4.26330082477059        1.55985956003992       -0.69153133438806
H           -7.66964869413606        4.27161794816493       -1.51312474720400
H          -10.00163293073530        5.01653660809915       -1.48513201337507
H          -12.01496840652398        4.88068173319619       -2.48490404746476
H          -13.67160064115864        4.42228401646507       -2.10142048176928
H          -12.56124224186053        3.23339301332224       -2.78903839590097
H          -11.97863581361611        4.57314011260251        1.25625979352294
H          -11.66181085474477        5.67402189580790       -0.08239474256927
H          -13.31973524934868        5.22713531964237        0.31118083371351
H          -14.20835284064501        3.00808769810742       -0.18974960067013
H          -12.96335384169562        2.27708103831402        0.81547605709473
H          -13.20472448325217        1.72494596757379       -0.85329273899613
H          -11.17088520065967        1.19933142912185        0.00922526705143
H          -11.35277401424215       -0.74363623090920       -0.16132710225366
H          -13.24614606578852       -2.46266963324538        2.55276298097761
H          -13.00518126713407       -4.18493713041268        2.26952751448592
H          -14.52380637225006       -3.42457383349843        1.80345529114681
H          -14.68454111913948       -1.94143314358610       -0.12478044116779
H          -13.49028799166585       -0.86905039241216        0.59473383572033
H          -13.27423642806417       -1.46512764052703       -1.06234187616020
H          -12.68958208491241       -5.04326225635038       -0.11581065735192
H          -14.20889131253137       -4.29015541596994       -0.59315437923059
H          -12.72015968061239       -3.90878336554536       -1.46357052856542
H          -11.00660885962443       -4.70582499981354        1.37240145403871
H           -8.58008609440862       -4.41752473700043        1.52084626414369
H           -4.09379919480329       -1.99502902405394       -1.76049717584383
H           -2.98913574778731       -3.43516216384151       -3.39107513594066
H           -0.51980066706064       -3.64037220167797       -3.40378367779482
H            0.80641084723298       -2.34201103739746       -1.77764830281183
H            4.63971711838931       -2.07535333346038       -1.20626456653881
