  64
        -93.65724384
 C         -0.5311615091       -4.8414876158        0.5251119880
 C          0.7364890664       -3.9873599727        0.4381240132
 C          1.5663582679       -4.4845966158       -0.7548195552
 C          1.5337467338       -4.1759530859        1.7366063278
 C          0.4311500021       -2.5114811234        0.2482666625
 C          1.4932309161       -1.6082293871        0.1336835276
 C          1.2770650764       -0.2332037747        0.0150629926
 C         -0.0277312126        0.2996025741        0.0056718222
 C         -1.0885370644       -0.6363736806        0.0131176473
 C         -0.8571238296       -2.0055597406        0.1923341439
 N         -2.3755451526       -0.1364399097       -0.0791314475
 C         -3.5682393159       -0.7873623952       -0.3253901722
 C         -3.8376699486       -2.0556229607       -0.8276954659
 C         -5.1562322762       -2.4372576899       -0.9875633243
 C         -6.2073010450       -1.5707291140       -0.6784403225
 C         -5.9572204008       -0.2838396048       -0.2460181844
 C         -4.6409115081        0.1250811460       -0.0810535180
 C         -4.0453678119        1.3798770932        0.2613141984
 C         -4.5473050126        2.6387796843        0.5924752770
 C         -3.6275554481        3.6521789763        0.8506004297
 C         -2.2630361829        3.4532611920        0.7492420328
 C         -1.7041323729        2.2099303060        0.3672652236
 C         -2.6527730687        1.1873134543        0.2040527548
 B         -0.2494456198        1.8026976025        0.0896875038
 C          1.0157635998        2.6536119323       -0.0795718414
 C          1.0284528248        4.0500985083       -0.2236759682
 C          2.1889758475        4.7691272696       -0.4119001364
 C          3.4107914211        4.1076432471       -0.4800643659
 C          3.4500959493        2.7312916421       -0.3651026839
 C          2.2769228491        1.9960359574       -0.1620169079
 N          2.3633209316        0.6183031413       -0.0639448478
 C          3.6576286817        0.0258990013       -0.1026801995
 C          4.4472555635        0.0125624624        1.0413494089
 C          5.6970109544       -0.5796009628        1.0066898979
 C          6.1616575935       -1.1589382638       -0.1631275570
 C          5.3744886726       -1.1445693500       -1.3033867730
 C          4.1238887119       -0.5542285890       -1.2771320528
 H         -1.1229469747       -4.7561545293       -0.3833105607
 H         -1.1408132791       -4.5532478800        1.3781558250
 H         -0.2564762955       -5.8869402873        0.6484065525
 H          1.0217439369       -4.3277491866       -1.6835939919
 H          1.7727911061       -5.5476088841       -0.6515487153
 H          2.5154937149       -3.9599554228       -0.8237436308
 H          1.7448627431       -5.2309968379        1.8973391435
 H          2.4791839891       -3.6412413147        1.7016318083
 H          0.9625804129       -3.8046554589        2.5849541668
 H          2.5021467523       -1.9813626523        0.1895199340
 H         -1.6990316713       -2.6536033116        0.3484999440
 H         -3.0514683543       -2.7248064875       -1.1388431443
 H         -5.3777207142       -3.4200196583       -1.3756994270
 H         -7.2247141971       -1.9073817757       -0.8104368464
 H         -6.7674812784        0.4020369815       -0.0495263038
 H         -5.6089898924        2.8162501221        0.6607966456
 H         -3.9953096931        4.6300147915        1.1305385965
 H         -1.6026869900        4.2762848189        0.9717303032
 H          0.0855512384        4.5714835634       -0.2059582051
 H          2.1528945008        5.8441537544       -0.5149189482
 H          4.3260201837        4.6592644752       -0.6322340357
 H          4.4020663995        2.2280805868       -0.4402069501
 H          4.0735836581        0.4676592162        1.9465579265
 H          6.3080592321       -0.5902690116        1.8965084356
 H          7.1367844078       -1.6208652683       -0.1864850665
 H          5.7348309981       -1.5933763046       -2.2167698703
 H          3.4997632350       -0.5376303337       -2.1584899541
