  64
  -93.2473875055000       0.210089194702436      !
 C          1.5283359755       -4.2328536138       -1.5681668872
 C          0.7362955621       -3.9997674563       -0.2737708296
 C          1.5711115455       -4.4548440156        0.9324826062
 C         -0.5315494355       -4.8566720351       -0.3226828019
 C          0.4311634978       -2.5178165319       -0.1379647464
 C          1.4928737328       -1.6140059177       -0.0261629730
 C          1.2755094735       -0.2352939951        0.0339289915
 C         -0.0286066317        0.2982653237        0.0365730956
 C         -1.0921021630       -0.6349706374        0.0191388044
 C         -0.8562745443       -2.0069118656       -0.1370637927
 N         -2.3813240592       -0.1337938460        0.0774584762
 C         -3.5837591945       -0.7849283699        0.2756049844
 C         -3.8777669924       -2.0591699568        0.7492835177
 C         -5.2023667589       -2.4396307301        0.8508973395
 C         -6.2392415993       -1.5658518915        0.5149760653
 C         -5.9687506091       -0.2725544469        0.1161516364
 C         -4.6459077533        0.1344224972        0.0086502125
 C         -4.0372561958        1.3928472094       -0.2916554883
 C         -4.5279454570        2.6592999917       -0.6115892869
 C         -3.6002892116        3.6768607808       -0.8200931514
 C         -2.2398417390        3.4724602048       -0.6844334147
 C         -1.6941105181        2.2191477857       -0.3153991488
 C         -2.6477747924        1.1953522125       -0.1949912082
 B         -0.2455247554        1.8033195751       -0.0259399058
 C          1.0201546893        2.6502996077        0.1580107269
 C          1.0364741888        4.0423682313        0.3389278892
 C          2.2041259327        4.7591544307        0.4897974323
 C          3.4297589140        4.1015972267        0.4667184162
 C          3.4660032937        2.7277451525        0.3211517090
 C          2.2833088830        1.9926768846        0.1841610881
 N          2.3629707641        0.6163863690        0.0778017908
 C          3.6591562808        0.0239026276        0.0325908096
 C          4.2979900333       -0.3593071384        1.2055438416
 C          5.5482112118       -0.9492334942        1.1446573061
 C          6.1601783568       -1.1591688728       -0.0804537791
 C          5.5224771098       -0.7759312392       -1.2488909646
 C          4.2726900589       -0.1842304804       -1.1964284868
 H          2.4683335182       -3.6873067290       -1.5581494735
 H          0.9497842409       -3.9001987431       -2.4274548613
 H          1.7485620693       -5.2912948849       -1.6885611674
 H          2.5290416567       -3.9436498613        0.9694454724
 H          1.7607246605       -5.5243338406        0.8745851106
 H          1.0380910344       -4.2487583704        1.8582751503
 H         -0.2570087622       -5.9069478104       -0.3942903822
 H         -1.1245650903       -4.7262702067        0.5795872841
 H         -1.1397055694       -4.6111883123       -1.1899456878
 H          2.5020341607       -1.9904391011       -0.0341962057
 H         -1.6922744503       -2.6572761579       -0.3109069757
 H         -3.1089623555       -2.7369826842        1.0837115469
 H         -5.4403601191       -3.4283859709        1.2131478085
 H         -7.2617038028       -1.9023636525        0.5996352988
 H         -6.7684894575        0.4198036238       -0.0997141687
 H         -5.5871112293        2.8397346384       -0.7061281834
 H         -3.9587118478        4.6614432881       -1.0886080971
 H         -1.5707233048        4.2974286003       -0.8705704307
 H          0.0924684536        4.5609339026        0.3787569711
 H          2.1715317075        5.8308031058        0.6246775528
 H          4.3511115884        4.6541836860        0.5712168029
 H          4.4221855430        2.2266261045        0.3180750284
 H          3.8085173397       -0.1925930504        2.1537082267
 H          6.0429741953       -1.2489883508        2.0561174178
 H          7.1335643208       -1.6234387126       -0.1245582986
 H          5.9974572879       -0.9382696442       -2.2046564765
 H          3.7641655399        0.1206208044       -2.0990761989
  64
  -93.2472895522000       0.189403280380195      !
 C         -0.5493951470       -4.8498622613        0.4181847699
 C          0.7212146077       -3.9970916584        0.3694808676
 C          1.5697705832       -4.4720536474       -0.8193864058
 C          1.4964482546       -4.2137198114        1.6768937740
 C          0.4219931119       -2.5169755856        0.2044989206
 C          1.4876170137       -1.6140573208        0.1258022317
 C          1.2761747166       -0.2364191091        0.0314674611
 C         -0.0272275202        0.2994903531        0.0112730940
 C         -1.0898642400       -0.6339846766       -0.0177719634
 C         -0.8641702511       -2.0070437838        0.1375084803
 N         -2.3741714948       -0.1293086652       -0.1211667831
 C         -3.5639046659       -0.7723589328       -0.4002440909
 C         -3.8274796659       -2.0295875371       -0.9324966549
 C         -5.1439626553       -2.4048589468       -1.1218463798
 C         -6.1982946753       -1.5423174899       -0.8126852788
 C         -5.9528708302       -0.2650074630       -0.3502352010
 C         -4.6386714165        0.1374466060       -0.1552755995
 C         -4.0464025476        1.3836880825        0.2222168976
 C         -4.5512673868        2.6368048543        0.5704326320
 C         -3.6339190206        3.6426498181        0.8641908060
 C         -2.2683031841        3.4426584218        0.7814172411
 C         -1.7056058982        2.2060044992        0.3836606774
 C         -2.6534340247        1.1890937960        0.1841182774
 B         -0.2473250179        1.8010915506        0.1220048098
 C          1.0222020495        2.6523168671       -0.0090477651
 C          1.0400481381        4.0513960039       -0.1246369469
 C          2.2049567635        4.7713886446       -0.2790483293
 C          3.4264212563        4.1085868453       -0.3403593225
 C          3.4610849867        2.7301066499       -0.2526350297
 C          2.2832493616        1.9936195805       -0.0839047302
 N          2.3652774973        0.6139904656       -0.0123131067
 C          3.6588728288        0.0194918875       -0.0416082173
 C          4.4293861922       -0.0187786170        1.1148245503
 C          5.6783682499       -0.6130156139        1.0888716714
 C          6.1612062709       -1.1696820738       -0.0845809196
 C          5.3930900296       -1.1304612574       -1.2371830290
 C          4.1433993235       -0.5378748321       -1.2196829213
 H         -1.1258601769       -4.7448272984       -0.4979915372
 H         -1.1725405445       -4.5774990376        1.2666830326
 H         -0.2788658584       -5.8982256593        0.5248285425
 H          1.0409494609       -4.2952173658       -1.7536802515
 H          1.7723543614       -5.5374104179       -0.7342439966
 H          2.5209568747       -3.9483281647       -0.8619688447
 H          1.7027771809       -5.2722811737        1.8197172400
 H          2.4433936864       -3.6806029707        1.6683918726
 H          0.9120254781       -3.8583101949        2.5230149077
 H          2.4947261875       -1.9905791633        0.1907615780
 H         -1.7098356676       -2.6561567099        0.2665799862
 H         -3.0375530738       -2.6941700722       -1.2440708038
 H         -5.3609300152       -3.3790650296       -1.5333989546
 H         -7.2140436695       -1.8738769117       -0.9682807466
 H         -6.7649183745        0.4186362349       -0.1533379672
 H         -5.6135856040        2.8153188678        0.6247566806
 H         -4.0043271179        4.6154815619        1.1577341300
 H         -1.6101052375        4.2594879551        1.0314071490
 H          0.0980177839        4.5745003860       -0.1119754420
 H          2.1727203394        5.8483573092       -0.3608773622
 H          4.3451399358        4.6610467402       -0.4661739800
 H          4.4131708791        2.2263105810       -0.3221456726
 H          4.0416531952        0.4188066962        2.0227498916
 H          6.2745500119       -0.6430698469        1.9882797460
 H          7.1356687710       -1.6333014578       -0.1011440574
 H          5.7676433731       -1.5615620743       -2.1533734214
 H          3.5340135997       -0.5020322018       -2.1107296141
  64
  -93.2472196198000       0.175893094967146      !
 C          1.5553137759       -4.5126632629        0.6370663608
 C          0.7246290708       -3.9788493565       -0.5391170549
 C         -0.5460273608       -4.8254049473       -0.6518807041
 C          1.5191120045       -4.1321670778       -1.8442798826
 C          0.4243482576       -2.5080016471       -0.3077730193
 C          1.4891662894       -1.6067263037       -0.1996368509
 C          1.2764766694       -0.2322615991       -0.0701845815
 C         -0.0270971151        0.3027802417       -0.0456745318
 C         -1.0864397943       -0.6343764249       -0.0186660625
 C         -0.8619636208       -2.0028156382       -0.2097290110
 N         -2.3682379157       -0.1331489286        0.1184968754
 C         -3.5472028606       -0.7799277663        0.4293059981
 C         -3.7888692672       -2.0414431137        0.9613762196
 C         -5.0973303121       -2.4195749416        1.1951208057
 C         -6.1626723066       -1.5563727562        0.9279174054
 C         -5.9360823279       -0.2765416275        0.4622793503
 C         -4.6301461232        0.1295906580        0.2242942291
 C         -4.0512295935        1.3786838558       -0.1655887620
 C         -4.5676413788        2.6323742763       -0.4932376571
 C         -3.6602791018        3.6400052721       -0.8102986634
 C         -2.2924010232        3.4420312386       -0.7670488329
 C         -1.7159683245        2.2060092281       -0.3880760428
 C         -2.6571657099        1.1866510337       -0.1692929583
 B         -0.2511581895        1.8037969969       -0.1523448271
 C          1.0209934765        2.6554585753       -0.0428919425
 C          1.0411783389        4.0569085156        0.0375062584
 C          2.2052721437        4.7793703844        0.1862717236
 C          3.4244452566        4.1165616035        0.2809381502
 C          3.4574777265        2.7365197944        0.2251462045
 C          2.2815235975        1.9974993859        0.0539126328
 N          2.3648628151        0.6169865230        0.0026461181
 C          3.6505682747        0.0156035025        0.1114049169
 C          4.0513018476       -0.5428577088        1.3201748563
 C          5.2929709655       -1.1430466193        1.4232050450
 C          6.1367360943       -1.1898325950        0.3249555014
 C          5.7370101220       -0.6334549501       -0.8795572699
 C          4.4966714922       -0.0312430409       -0.9909692465
 H          1.7722058721       -5.5689611004        0.4939464274
 H          1.0056820264       -4.3964751536        1.5688916493
 H          2.4986300086       -3.9810510627        0.7290387233
 H         -1.1587747274       -4.5022853743       -1.4901858556
 H         -1.1335057216       -4.7740593389        0.2617398542
 H         -0.2748426755       -5.8660422027       -0.8165747049
 H          1.7193298291       -5.1832726600       -2.0399703480
 H          0.9510232110       -3.7275122978       -2.6792664661
 H          2.4701834554       -3.6091314563       -1.7933076513
 H          2.4972411642       -1.9791974065       -0.2747158242
 H         -1.7099031994       -2.6489270734       -0.3421933635
 H         -2.9855659866       -2.7057576675        1.2380426308
 H         -5.2989819086       -3.3961361438        1.6090047668
 H         -7.1719673773       -1.8904693402        1.1168900860
 H         -6.7561338553        0.4055980655        0.2957005093
 H         -5.6312755383        2.8099189304       -0.5156289995
 H         -4.0399966162        4.6134386269       -1.0897487260
 H         -1.6445487185        4.2619914688       -1.0329822689
 H          0.1009348238        4.5818030215        0.0021920929
 H          2.1735821507        5.8581053761        0.2400433475
 H          4.3424888502        4.6703209800        0.4061867065
 H          4.4077931064        2.2334394668        0.3190234126
 H          3.3831743583       -0.5016555424        2.1677757111
 H          5.6021927230       -1.5738740048        2.3635551009
 H          7.1051645269       -1.6588744636        0.4080672961
 H          6.3919393369       -0.6701956125       -1.7369542477
 H          4.1738253987        0.4057472803       -1.9242959074
  64
  -93.2470142187000       0.141531458095189      !
 C         -0.0260660444       -4.7623443549        0.7092212300
 C          0.6645469144       -4.0019937655       -0.4326166072
 C          0.0512303519       -4.4213875966       -1.7765023669
 C          2.1449145798       -4.3932362144       -0.4383011679
 C          0.4557927151       -2.5096674168       -0.2353642532
 C          1.5148951706       -1.6096029357       -0.1215508012
 C          1.2919785814       -0.2317871713       -0.0128410459
 C         -0.0118744332        0.3013054744       -0.0027075120
 C         -1.0730455041       -0.6354580048       -0.0036953918
 C         -0.8361963245       -2.0006747908       -0.1800988292
 N         -2.3603834464       -0.1361451584        0.0888470006
 C         -3.5516525258       -0.7872532458        0.3401772243
 C         -3.8178086129       -2.0530945472        0.8498130782
 C         -5.1355512718       -2.4364067725        1.0129107510
 C         -6.1883731938       -1.5732296758        0.6997439829
 C         -5.9412253619       -0.2877835068        0.2615143469
 C         -4.6257010689        0.1229201893        0.0937206390
 C         -4.0319380761        1.3770101334       -0.2540372581
 C         -4.5359998688        2.6350837783       -0.5853160065
 C         -3.6173753942        3.6490762294       -0.8470155386
 C         -2.2528754055        3.4512764020       -0.7502630864
 C         -1.6910545366        2.2086948101       -0.3674679569
 C         -2.6391660885        1.1859205070       -0.1993463521
 B         -0.2358082510        1.8039666524       -0.0929214229
 C          1.0308147378        2.6570946567        0.0595991532
 C          1.0453715631        4.0549206136        0.1858740753
 C          2.2084261671        4.7762712598        0.3516267917
 C          3.4305127918        4.1156564115        0.4126790875
 C          3.4679952513        2.7375402023        0.3158605227
 C          2.2921076430        2.0000938737        0.1380016645
 N          2.3774717826        0.6210455086        0.0573899243
 C          3.6732178070        0.0309082605        0.1042434641
 C          4.1553405635       -0.4970966872        1.2964676648
 C          5.4092228089       -1.0801798637        1.3328373586
 C          6.1830130019       -1.1393987371        0.1849476194
 C          5.7021081610       -0.6124018822       -1.0027761133
 C          4.4492612582       -0.0272562775       -1.0474995247
 H          0.1402616541       -5.8321000458        0.6014416290
 H         -1.0982101308       -4.5866541662        0.7102932710
 H          0.3755646438       -4.4455667462        1.6698628255
 H         -1.0172499876       -4.2254786824       -1.8027676282
 H          0.2061094038       -5.4853322202       -1.9432024419
 H          0.5189033947       -3.8717533564       -2.5908151217
 H          2.2337950127       -5.4699558424       -0.5674925684
 H          2.6747661614       -3.9129812215       -1.2579219488
 H          2.6242748236       -4.1271109239        0.5012416222
 H          2.5262644110       -1.9718248570       -0.1672581283
 H         -1.6732957747       -2.6584007327       -0.3339336314
 H         -3.0291086270       -2.7175311463        1.1654929815
 H         -5.3552284725       -3.4172251140        1.4071687221
 H         -7.2050905390       -1.9114257795        0.8333104509
 H         -6.7529853787        0.3954681256        0.0621748571
 H         -5.5979654075        2.8118705106       -0.6504577096
 H         -3.9868129209        4.6266185594       -1.1260045497
 H         -1.5940816331        4.2743768290       -0.9767624297
 H          0.1026370528        4.5766547709        0.1726215141
 H          2.1733952361        5.8525370900        0.4412014928
 H          4.3479869003        4.6689270179        0.5440235233
 H          4.4212035134        2.2355557563        0.3828666149
 H          3.5417838585       -0.4445539473        2.1838261854
 H          5.7829426278       -1.4874270150        2.2601873597
 H          7.1607618758       -1.5952986746        0.2162529837
 H          6.3028422058       -0.6581863260       -1.8985651522
 H          4.0626178210        0.3875584064       -1.9666452105
  64
  -93.2469803569000       0.136549833553695      !
 C         -0.0124228186       -4.7903688808        0.5448213228
 C          0.6624681039       -3.9855328844       -0.5752063199
 C          0.0310392951       -4.3526883163       -1.9260243248
 C          2.1425299954       -4.3752258800       -0.6168197326
 C          0.4565110751       -2.5014994721       -0.3221821711
 C          1.5162041086       -1.6028960010       -0.2009351082
 C          1.2942009509       -0.2282108918       -0.0577062359
 C         -0.0094715316        0.3051306659       -0.0410502813
 C         -1.0682078550       -0.6340934716       -0.0298440397
 C         -0.8349432409       -1.9963756504       -0.2269595151
 N         -2.3523600394       -0.1356038679        0.0956818266
 C         -3.5331677695       -0.7858689541        0.3910845402
 C         -3.7764062196       -2.0480649243        0.9200817959
 C         -5.0865312800       -2.4308925616        1.1371379029
 C         -6.1510876661       -1.5712425035        0.8558787660
 C         -5.9232662328       -0.2903092185        0.3939933433
 C         -4.6157596899        0.1206593188        0.1728754642
 C         -4.0351235802        1.3717458327       -0.2084783585
 C         -4.5501314924        2.6246734766       -0.5415655096
 C         -3.6406182727        3.6350088240       -0.8454866993
 C         -2.2732936297        3.4404428211       -0.7849613063
 C         -1.6983855899        2.2048937892       -0.3997574593
 C         -2.6407448423        1.1832634551       -0.1947583799
 B         -0.2364716057        1.8058892438       -0.1455248179
 C          1.0332316123        2.6598147586       -0.0197826585
 C          1.0496441926        4.0608405756        0.0627837633
 C          2.2103483057        4.7853543115        0.2303923905
 C          3.4284197849        4.1243858182        0.3431116435
 C          3.4646211563        2.7442282354        0.2846090543
 C          2.2929896446        2.0034795228        0.0923458312
 N          2.3798103550        0.6228497502        0.0357093568
 C          3.6648827811        0.0244136181        0.1657591682
 C          4.0403320794       -0.5470241576        1.3766114989
 C          5.2827150834       -1.1410215620        1.5018930784
 C          6.1523745472       -1.1699907644        0.4234462040
 C          5.7776476638       -0.6016598332       -0.7834494584
 C          4.5373735365       -0.0042427084       -0.9166307360
 H         -1.0848739892       -4.6182632096        0.5652484844
 H          0.3994682043       -4.5086789055        1.5119473368
 H          0.1551531480       -5.8547645467        0.3951726137
 H          0.4899993809       -3.7741376926       -2.7250469334
 H         -1.0369175585       -4.1520467933       -1.9310968051
 H          0.1800265936       -5.4098692839       -2.1349849869
 H          2.2297752355       -5.4461728689       -0.7875018634
 H          2.6600324313       -3.8643806380       -1.4256589062
 H          2.6355336224       -4.1432389561        0.3246613544
 H          2.5274741955       -1.9618562533       -0.2712553839
 H         -1.6758971690       -2.6522254909       -0.3700184928
 H         -2.9734186023       -2.7080693222        1.2082552757
 H         -5.2902202269       -3.4078121092        1.5492041240
 H         -7.1615144704       -1.9086984221        1.0323764276
 H         -6.7436615061        0.3889149642        0.2172526885
 H         -5.6136827412        2.8000905675       -0.5774459227
 H         -4.0191674363        4.6081496163       -1.1276026489
 H         -1.6239636080        4.2618568847       -1.0425638336
 H          0.1090563208        4.5841539701        0.0154873893
 H          2.1757246751        5.8638831139        0.2860558413
 H          4.3435210564        4.6790130574        0.4850942663
 H          4.4144963696        2.2433237484        0.3917919403
 H          3.3532580398       -0.5171585959        2.2094187096
 H          5.5725018895       -1.5809614552        2.4441972030
 H          7.1211691062       -1.6346183414        0.5237452301
 H          6.4529798617       -0.6239143691       -1.6252825813
 H          4.2342633626        0.4427018186       -1.8519445709
  64
  -93.2468247235000       0.115815588053154      !
 C         -0.0765963484       -4.8123170634        0.3599616843
 C          0.6642391516       -3.9652919440       -0.6849231187
 C          0.1005173395       -4.2630584762       -2.0822134928
 C          2.1410590192       -4.3688122311       -0.6643077047
 C          0.4591327244       -2.4902745389       -0.3844136233
 C          1.5186027254       -1.5937418907       -0.2456626926
 C          1.2960056083       -0.2211769544       -0.0855567803
 C         -0.0068040328        0.3138318908       -0.0638284459
 C         -1.0632381692       -0.6280338640       -0.0525978618
 C         -0.8317025245       -1.9863340426       -0.2761737514
 N         -2.3452357801       -0.1344083614        0.0996368993
 C         -3.5169246492       -0.7928029338        0.4110707368
 C         -3.7427054135       -2.0628428393        0.9286556646
 C         -5.0465465986       -2.4551965892        1.1653290996
 C         -6.1201322806       -1.5974153294        0.9146597802
 C         -5.9076386795       -0.3091220053        0.4655078134
 C         -4.6066467678        0.1117902140        0.2256908465
 C         -4.0375730204        1.3701630507       -0.1504211780
 C         -4.5638690279        2.6250280791       -0.4560913243
 C         -3.6638981129        3.6415077881       -0.7663457177
 C         -2.2948654638        3.4504190524       -0.7388133932
 C         -1.7059604911        2.2127910208       -0.3830391191
 C         -2.6422749124        1.1869334912       -0.1683428484
 B         -0.2363762039        1.8145114186       -0.1643727654
 C          1.0402264343        2.6662413940       -0.0817561326
 C          1.0663011721        4.0691979459       -0.0523568024
 C          2.2317067209        4.7938972129        0.0792941673
 C          3.4468789010        4.1316779704        0.2109818378
 C          3.4750227216        2.7502450852        0.2023506622
 C          2.2992601687        2.0087643312        0.0400949867
 N          2.3825777668        0.6272005009        0.0212608102
 C          3.6527895710        0.0189297101        0.2266816373
 C          3.9540748142       -0.5279363680        1.4693999260
 C          5.1771064182       -1.1391286021        1.6754634189
 C          6.1018359440       -1.2098558726        0.6456966282
 C          5.8014687833       -0.6656862366       -0.5928936855
 C          4.5806069235       -0.0516116696       -0.8070157523
 H          0.1188444109       -5.8690964908        0.1916502487
 H         -1.1505825826       -4.6586905800        0.3071206663
 H          0.2599372599       -4.5548169106        1.3621630510
 H         -0.9577079375       -4.0226845770       -2.1386717583
 H          0.2255664192       -5.3166319423       -2.3221877359
 H          0.6232666964       -3.6729373876       -2.8319578284
 H          2.2274458842       -5.4360599641       -0.8571111047
 H          2.7028298153       -3.8448680110       -1.4340699996
 H          2.5887304532       -4.1632136780        0.3055635614
 H          2.5304739904       -1.9507696706       -0.3190302417
 H         -1.6745164598       -2.6373473344       -0.4306889170
 H         -2.9301978932       -2.7217437390        1.1918861609
 H         -5.2376279708       -3.4383064623        1.5686504432
 H         -7.1253868535       -1.9423562302        1.1055190530
 H         -6.7348609352        0.3678451848        0.3141096992
 H         -5.6285065909        2.7971650437       -0.4676611738
 H         -4.0508783753        4.6172403082       -1.0271763046
 H         -1.6567599083        4.2796556471       -0.9986331424
 H          0.1294396044        4.5971701785       -0.1126190786
 H          2.2021313287        5.8739483522        0.0947404815
 H          4.3657574255        4.6861329279        0.3267372612
 H          4.4229211524        2.2481398242        0.3205706053
 H          3.2235178867       -0.4677129954        2.2626673682
 H          5.4086478245       -1.5597452617        2.6424311756
 H          7.0555743195       -1.6878832241        0.8086134876
 H          6.5200578608       -0.7203938298       -1.3967183590
 H          4.3359664223        0.3760926581       -1.7680909760
  64
  -93.2455705452000       3.071755024818627E-002 !
 C         -0.4640599427       -4.8548274416       -0.1684369234
 C          0.6986289647       -4.0033369042        0.3566746566
 C          1.9706985980       -4.4391901788       -0.3838928572
 C          0.8726582827       -4.2643884432        1.8600439551
 C          0.4356564152       -2.5189821671        0.1621058647
 C          1.4978107372       -1.6125395792        0.1098276906
 C          1.2818795891       -0.2341057261        0.0195022398
 C         -0.0216411237        0.3005363827       -0.0078047143
 C         -1.0828137417       -0.6348988673       -0.0401949864
 C         -0.8522551687       -2.0071452702        0.1040416892
 N         -2.3690368058       -0.1329198220       -0.1352505794
 C         -3.5593783152       -0.7785382574       -0.4069427864
 C         -3.8243331316       -2.0353673598       -0.9396789664
 C         -5.1416993667       -2.4130947585       -1.1187169466
 C         -6.1956867910       -1.5539867467       -0.7986071953
 C         -5.9494289432       -0.2769157402       -0.3361347797
 C         -4.6344519301        0.1283707919       -0.1524389791
 C         -4.0425055670        1.3758803318        0.2208692737
 C         -4.5488391050        2.6285356545        0.5687737862
 C         -3.6323790426        3.6377746282        0.8534320580
 C         -2.2669897773        3.4403522996        0.7647631252
 C         -1.7028458386        2.2037682114        0.3677121157
 C         -2.6494463362        1.1845531785        0.1735296671
 B         -0.2443270295        1.8017305787        0.1053726760
 C          1.0253920016        2.6551698445       -0.0122851365
 C          1.0431846272        4.0548016684       -0.1204405704
 C          2.2093132732        4.7770440696       -0.2563365734
 C          3.4318990433        4.1158167104       -0.3065825604
 C          3.4667133691        2.7365716115       -0.2272931773
 C          2.2876503361        1.9980313867       -0.0765352507
 N          2.3701662981        0.6178895519       -0.0117716401
 C          3.6655477679        0.0263490741       -0.0345720544
 C          4.4252343222       -0.0195582610        1.1287473719
 C          5.6772833859       -0.6071157484        1.1089436604
 C          6.1740104126       -1.1494898853       -0.0652947340
 C          5.4165893811       -1.1029873341       -1.2246346331
 C          4.1638508877       -0.5169017407       -1.2132998446
 H         -0.6948504816       -4.5926303579       -1.1989057219
 H         -1.3575515849       -4.7306932456        0.4375817913
 H         -0.1922890649       -5.9076910921       -0.1374463576
 H          1.9331626123       -4.1232023693       -1.4242405642
 H          2.0601250772       -5.5229083870       -0.3567356396
 H          2.8656723789       -4.0259858347        0.0736275787
 H          1.0626400043       -5.3199090157        2.0419666622
 H          1.7075386595       -3.6880199198        2.2526843308
 H         -0.0255034326       -3.9747522810        2.4016218637
 H          2.5054735104       -1.9803640697        0.1927946673
 H         -1.6952137465       -2.6604418194        0.2313502918
 H         -3.0358751534       -2.6983801299       -1.2585278142
 H         -5.3596886279       -3.3866477983       -1.5311020824
 H         -7.2120094921       -1.8882287608       -0.9446977859
 H         -6.7612334539        0.4039376608       -0.1292622899
 H         -5.6112664655        2.8043832575        0.6289650647
 H         -4.0035092058        4.6114600073        1.1439442207
 H         -1.6098292544        4.2596753986        1.0087559082
 H          0.1006129172        4.5770357163       -0.1178887134
 H          2.1767611857        5.8544125539       -0.3327341174
 H          4.3516994329        4.6698381241       -0.4171009000
 H          4.4202178995        2.2343936474       -0.2882934979
 H          4.0266181128        0.4074163801        2.0371358068
 H          6.2652290519       -0.6425279723        2.0135786359
 H          7.1511235061       -1.6075745969       -0.0770553432
 H          5.8018682803       -1.5234603072       -2.1412091253
 H          3.5628449235       -0.4756274528       -2.1097146899
