  64
        -93.65724384
 C         -0.5311615091       -4.8414876158        0.5251119880
 C          0.7364890664       -3.9873599727        0.4381240132
 C          1.5663582679       -4.4845966158       -0.7548195552
 C          1.5337467338       -4.1759530859        1.7366063278
 C          0.4311500021       -2.5114811234        0.2482666625
 C          1.4932309161       -1.6082293871        0.1336835276
 C          1.2770650764       -0.2332037747        0.0150629926
 C         -0.0277312126        0.2996025741        0.0056718222
 C         -1.0885370644       -0.6363736806        0.0131176473
 C         -0.8571238296       -2.0055597406        0.1923341439
 N         -2.3755451526       -0.1364399097       -0.0791314475
 C         -3.5682393159       -0.7873623952       -0.3253901722
 C         -3.8376699486       -2.0556229607       -0.8276954659
 C         -5.1562322762       -2.4372576899       -0.9875633243
 C         -6.2073010450       -1.5707291140       -0.6784403225
 C         -5.9572204008       -0.2838396048       -0.2460181844
 C         -4.6409115081        0.1250811460       -0.0810535180
 C         -4.0453678119        1.3798770932        0.2613141984
 C         -4.5473050126        2.6387796843        0.5924752770
 C         -3.6275554481        3.6521789763        0.8506004297
 C         -2.2630361829        3.4532611920        0.7492420328
 C         -1.7041323729        2.2099303060        0.3672652236
 C         -2.6527730687        1.1873134543        0.2040527548
 B         -0.2494456198        1.8026976025        0.0896875038
 C          1.0157635998        2.6536119323       -0.0795718414
 C          1.0284528248        4.0500985083       -0.2236759682
 C          2.1889758475        4.7691272696       -0.4119001364
 C          3.4107914211        4.1076432471       -0.4800643659
 C          3.4500959493        2.7312916421       -0.3651026839
 C          2.2769228491        1.9960359574       -0.1620169079
 N          2.3633209316        0.6183031413       -0.0639448478
 C          3.6576286817        0.0258990013       -0.1026801995
 C          4.4472555635        0.0125624624        1.0413494089
 C          5.6970109544       -0.5796009628        1.0066898979
 C          6.1616575935       -1.1589382638       -0.1631275570
 C          5.3744886726       -1.1445693500       -1.3033867730
 C          4.1238887119       -0.5542285890       -1.2771320528
 H         -1.1229469747       -4.7561545293       -0.3833105607
 H         -1.1408132791       -4.5532478800        1.3781558250
 H         -0.2564762955       -5.8869402873        0.6484065525
 H          1.0217439369       -4.3277491866       -1.6835939919
 H          1.7727911061       -5.5476088841       -0.6515487153
 H          2.5154937149       -3.9599554228       -0.8237436308
 H          1.7448627431       -5.2309968379        1.8973391435
 H          2.4791839891       -3.6412413147        1.7016318083
 H          0.9625804129       -3.8046554589        2.5849541668
 H          2.5021467523       -1.9813626523        0.1895199340
 H         -1.6990316713       -2.6536033116        0.3484999440
 H         -3.0514683543       -2.7248064875       -1.1388431443
 H         -5.3777207142       -3.4200196583       -1.3756994270
 H         -7.2247141971       -1.9073817757       -0.8104368464
 H         -6.7674812784        0.4020369815       -0.0495263038
 H         -5.6089898924        2.8162501221        0.6607966456
 H         -3.9953096931        4.6300147915        1.1305385965
 H         -1.6026869900        4.2762848189        0.9717303032
 H          0.0855512384        4.5714835634       -0.2059582051
 H          2.1528945008        5.8441537544       -0.5149189482
 H          4.3260201837        4.6592644752       -0.6322340357
 H          4.4020663995        2.2280805868       -0.4402069501
 H          4.0735836581        0.4676592162        1.9465579265
 H          6.3080592321       -0.5902690116        1.8965084356
 H          7.1367844078       -1.6208652683       -0.1864850665
 H          5.7348309981       -1.5933763046       -2.2167698703
 H          3.4997632350       -0.5376303337       -2.1584899541
  64
        -93.65714169
 C          1.5465467923       -4.5089787942        0.6828524486
 C          0.7380077714       -3.9801172889       -0.5108694425
 C         -0.5295796397       -4.8281902281       -0.6447881539
 C          1.5573577085       -4.1374142700       -1.8000873460
 C          0.4321760550       -2.5087144822       -0.2905915372
 C          1.4940063671       -1.6061199927       -0.1654208844
 C          1.2777710503       -0.2313877577       -0.0449984672
 C         -0.0264670880        0.3025905474       -0.0472730911
 C         -1.0853708884       -0.6353956209       -0.0370909215
 C         -0.8561812469       -2.0043129410       -0.2189094086
 N         -2.3699579726       -0.1348083251        0.0738030863
 C         -3.5541096180       -0.7815063645        0.3644059829
 C         -3.8048533837       -2.0413180887        0.8963122980
 C         -5.1172261819       -2.4197612933        1.1064286852
 C         -6.1779798968       -1.5584610984        0.8158555173
 C         -5.9435914326       -0.2801087911        0.3500154579
 C         -4.6336848900        0.1263172522        0.1355103460
 C         -4.0484536117        1.3745136850       -0.2477610044
 C         -4.5595415693        2.6265660411       -0.5897092431
 C         -3.6471169034        3.6338522209       -0.8930407254
 C         -2.2801519330        3.4372390063       -0.8230070391
 C         -1.7100469996        2.2030918157       -0.4286638904
 C         -2.6544170967        1.1836963376       -0.2241946658
 B         -0.2496720880        1.8030173096       -0.1636014002
 C          1.0194692699        2.6561856470       -0.0329827137
 C          1.0369794849        4.0579320857        0.0427374855
 C          2.1974379444        4.7819474115        0.2110665490
 C          3.4151220333        4.1205560468        0.3313462814
 C          3.4503328754        2.7403526792        0.2811652001
 C          2.2784581253        1.9996879214        0.0902057796
 N          2.3638806422        0.6190740240        0.0455100849
 C          3.6477663667        0.0192171116        0.1809267513
 C          4.0258312125       -0.5345532516        1.3991206787
 C          5.2657968816       -1.1332753760        1.5279659485
 C          6.1303880550       -1.1832560308        0.4461782534
 C          5.7532511412       -0.6315530681       -0.7677325926
 C          4.5147739016       -0.0308368413       -0.9049399927
 H          1.7669861016       -5.5655916378        0.5476990985
 H          0.9791524981       -4.3899342358        1.6036049740
 H          2.4875058023       -3.9762098659        0.7908773164
 H         -1.1264927062       -4.5086182234       -1.4957814826
 H         -1.1344138692       -4.7740863273        0.2572750607
 H         -0.2544589654       -5.8691721493       -0.8005328139
 H          1.7621239979       -5.1890380735       -1.9881379323
 H          1.0049655983       -3.7362563938       -2.6472049752
 H          2.5068592906       -3.6133620449       -1.7328761452
 H          2.5036316826       -1.9779701708       -0.2199249681
 H         -1.7009158940       -2.6516415359       -0.3651878644
 H         -3.0064325846       -2.7039287969        1.1906345142
 H         -5.3259401856       -3.3950093546        1.5199075419
 H         -7.1904232436       -1.8927664847        0.9867534973
 H         -6.7608710832        0.4007069218        0.1653765768
 H         -5.6226991855        2.8030926876       -0.6330142989
 H         -4.0222270018        4.6059426016       -1.1831836734
 H         -1.6280125059        4.2568105306       -1.0794922523
 H          0.0971544217        4.5818685231       -0.0123865602
 H          2.1638525063        5.8608399533        0.2603385205
 H          4.3301605048        4.6755690645        0.4720794807
 H          4.3990935594        2.2384491250        0.3949547172
 H          3.3416296635       -0.4909004560        2.2336755561
 H          5.5573812568       -1.5604558124        2.4755861181
 H          7.0974361328       -1.6511440107        0.5494271150
 H          6.4244399926       -0.6707911362       -1.6123494466
 H          4.2094287439        0.4025196762       -1.8458200383
  64
        -93.65704331
 C          1.5119871102       -4.2606785919       -1.5074882657
 C          0.7409319726       -4.0030205427       -0.2051040553
 C          1.5966425971       -4.4319414764        0.9960811561
 C         -0.5255596377       -4.8632509355       -0.2156609721
 C          0.4346552379       -2.5192329491       -0.0942151456
 C          1.4959726257       -1.6112423591       -0.0183179994
 C          1.2764380432       -0.2320304066        0.0175119921
 C         -0.0286887223        0.2988869711        0.0310108004
 C         -1.0901617278       -0.6366170406        0.0500728424
 C         -0.8537721343       -2.0109677504       -0.0822779685
 N         -2.3794002111       -0.1369194619        0.1196351951
 C         -3.5768805023       -0.7862938136        0.3508112428
 C         -3.8600578442       -2.0512706861        0.8549418460
 C         -5.1819100052       -2.4322225912        0.9861775909
 C         -6.2262225019       -1.5674766119        0.6499220388
 C         -5.9653644351       -0.2819798789        0.2206251725
 C         -4.6454277908        0.1253601072        0.0829974101
 C         -4.0447456156        1.3786550314       -0.2527193548
 C         -4.5435941808        2.6373999869       -0.5899840612
 C         -3.6218748942        3.6523706074       -0.8343569875
 C         -2.2588992301        3.4534539752       -0.7171819147
 C         -1.7042345036        2.2089492505       -0.3320119442
 C         -2.6534012267        1.1859110915       -0.1751475030
 B         -0.2500984121        1.8019352988       -0.0582815358
 C          1.0164850643        2.6549712059        0.0875042868
 C          1.0325696462        4.0504450467        0.2399721341
 C          2.2008934916        4.7724503626        0.3569438648
 C          3.4274973400        4.1169916806        0.3268234764
 C          3.4645119377        2.7405500848        0.2084541558
 C          2.2814195060        2.0005174787        0.1059753890
 N          2.3624998556        0.6225173148        0.0261291368
 C          3.6591294437        0.0318106962       -0.0286003093
 C          4.3181677212       -0.3263205785        1.1410952247
 C          5.5685741184       -0.9148786267        1.0714063710
 C          6.1606737416       -1.1483457669       -0.1591971198
 C          5.5028424585       -0.7900930140       -1.3243976985
 C          4.2527266464       -0.1999305171       -1.2631730651
 H          2.4507550313       -3.7131784083       -1.5240856068
 H          0.9185289536       -3.9466257303       -2.3636047364
 H          1.7326433180       -5.3209005399       -1.6101162262
 H          2.5538659819       -3.9182061751        1.0068164531
 H          1.7877496656       -5.5020058518        0.9566595883
 H          1.0785354981       -4.2082230329        1.9262365652
 H         -0.2498082103       -5.9142142824       -0.2705847815
 H         -1.1038672913       -4.7157955364        0.6935038507
 H         -1.1485480033       -4.6365712504       -1.0774978889
 H          2.5057316138       -1.9857598112       -0.0354850533
 H         -1.6910244239       -2.6663722873       -0.2290584322
 H         -3.0842569508       -2.7206526689        1.1901932511
 H         -5.4115857711       -3.4139156623        1.3722228277
 H         -7.2463616066       -1.9042327082        0.7583095261
 H         -6.7701674004        0.4042820462        0.0041148337
 H         -5.6045943384        2.8137848947       -0.6705658690
 H         -3.9869714367        4.6306061216       -1.1167212368
 H         -1.5948653448        4.2758120646       -0.9310171160
 H          0.0881529401        4.5678381079        0.2849726328
 H          2.1680520212        5.8465420285        0.4706735635
 H          4.3491698030        4.6734047026        0.4048419247
 H          4.4216710727        2.2413678076        0.1996391378
 H          3.8440637229       -0.1414265693        2.0936876928
 H          6.0790421300       -1.1951487455        1.9804025144
 H          7.1342700247       -1.6114824849       -0.2100556073
 H          5.9623200688       -0.9707947706       -2.2844366779
 H          3.7286330050        0.0855860024       -2.1632344833
  64
        -93.65692789
 C         -0.0155521165       -4.7509859713        0.7819772241
 C          0.6793502611       -4.0060266930       -0.3673788058
 C          0.0751528730       -4.4478849334       -1.7081935350
 C          2.1609215629       -4.3926265996       -0.3585253964
 C          0.4648661153       -2.5115228359       -0.1942328838
 C          1.5205170175       -1.6064762997       -0.0881219836
 C          1.2927377842       -0.2278694821       -0.0018331619
 C         -0.0127845858        0.3011896411       -0.0073943308
 C         -1.0710475068       -0.6388304963       -0.0001441708
 C         -0.8289809687       -2.0058322594       -0.1542303492
 N         -2.3604306632       -0.1422330654        0.0773055435
 C         -3.5511344475       -0.7931809663        0.3317106746
 C         -3.8163581262       -2.0519063433        0.8591467297
 C         -5.1338427006       -2.4368420070        1.0204965333
 C         -6.1874735413       -1.5818948706        0.6880667365
 C         -5.9417333052       -0.3025338482        0.2316171460
 C         -4.6265239304        0.1097110226        0.0651392590
 C         -4.0346058832        1.3602010437       -0.2983705307
 C         -4.5405969608        2.6114546449       -0.6517975399
 C         -3.6235870079        3.6242215387       -0.9237060287
 C         -2.2590713114        3.4322425683       -0.8160630226
 C         -1.6956696742        2.1974505524       -0.4110308201
 C         -2.6415947730        1.1743768688       -0.2327231943
 B         -0.2408077307        1.8015777093       -0.1219221033
 C          1.0222783466        2.6609424411        0.0248073504
 C          1.0318037127        4.0605769682        0.1297221767
 C          2.1916517408        4.7880555009        0.2911045361
 C          3.4153874152        4.1323210836        0.3693250701
 C          3.4576682897        2.7530094744        0.2938607236
 C          2.2851074260        2.0092112861        0.1205465448
 N          2.3751775420        0.6293672039        0.0615773560
 C          3.6724369745        0.0441173310        0.1249456182
 C          4.1492376715       -0.4640443913        1.3278848857
 C          5.4046735276       -1.0425339682        1.3804210747
 C          6.1853057472       -1.1168735918        0.2380568818
 C          5.7096998611       -0.6096470814       -0.9603600425
 C          4.4553415752       -0.0292199565       -1.0212744707
 H          0.1546871201       -5.8217350908        0.6915697623
 H         -1.0882192763       -4.5786915678        0.7741710380
 H          0.3795085559       -4.4182686703        1.7399510238
 H         -0.9937537594       -4.2557812456       -1.7436221520
 H          0.2342685617       -5.5137620246       -1.8576686894
 H          0.5458628007       -3.9093066304       -2.5281244536
 H          2.2538611582       -5.4709115697       -0.4706818112
 H          2.6940528173       -3.9233036910       -1.1823414283
 H          2.6339885267       -4.1106326416        0.5795772757
 H          2.5332436337       -1.9661552459       -0.1224363661
 H         -1.6631457885       -2.6684805360       -0.3027913313
 H         -3.0274690155       -2.7089340968        1.1895191945
 H         -5.3527935074       -3.4121987985        1.4284692195
 H         -7.2039062257       -1.9212200618        0.8209342600
 H         -6.7544164801        0.3750149791        0.0171480477
 H         -5.6027040290        2.7838638605       -0.7257666796
 H         -3.9943985761        4.5962044690       -1.2197734628
 H         -1.6015044139        4.2538579813       -1.0513487816
 H          0.0875629722        4.5790629917        0.1030353702
 H          2.1527923089        5.8654504666        0.3639671668
 H          4.3303770466        4.6904366351        0.4974635502
 H          4.4120091888        2.2551268837        0.3740515301
 H          3.5303713832       -0.3998622868        2.2107794935
 H          5.7742430962       -1.4343509296        2.3160452367
 H          7.1642527264       -1.5691463030        0.2819868935
 H          6.3157720293       -0.6672413466       -1.8518616059
 H          4.0727776861        0.3702483558       -1.9488859732
  64
        -93.65681564
 C         -0.0022238525       -4.7810388021        0.6215156005
 C          0.6764417945       -3.9923531373       -0.5076825754
 C          0.0532536008       -4.3828894928       -1.8557673518
 C          2.1577662145       -4.3784837112       -0.5351898904
 C          0.4650731217       -2.5050427690       -0.2795908419
 C          1.5216388897       -1.6016241122       -0.1671547166
 C          1.2951108807       -0.2254523619       -0.0471737342
 C         -0.0100870430        0.3044056905       -0.0459889760
 C         -1.0662932939       -0.6375029533       -0.0253340672
 C         -0.8282497943       -2.0021051759       -0.1993331816
 N         -2.3524581132       -0.1406924711        0.0853676187
 C         -3.5330444150       -0.7894705585        0.3848961120
 C         -3.7756526176       -2.0437086665        0.9327735944
 C         -5.0858669603       -2.4267052563        1.1489911140
 C         -6.1512530327       -1.5746811370        0.8483374252
 C         -5.9244717739       -0.3006762261        0.3671798862
 C         -4.6169312078        0.1103850557        0.1464359046
 C         -4.0376906274        1.3568335601       -0.2518516438
 C         -4.5543374671        2.6028038199       -0.6077196465
 C         -3.6459808269        3.6107022163       -0.9229797571
 C         -2.2784719752        3.4209913859       -0.8520905940
 C         -1.7022523805        2.1934016986       -0.4440744097
 C         -2.6428945046        1.1725318440       -0.2277153169
 B         -0.2406322472        1.8026505975       -0.1757247812
 C          1.0260381703        2.6620620333       -0.0569637820
 C          1.0381739202        4.0642718351        0.0032053289
 C          2.1959775297        4.7946518814        0.1653245241
 C          3.4152334396        4.1390154428        0.2950896747
 C          3.4555248759        2.7582052525        0.2589252700
 C          2.2869703579        2.0111664381        0.0723574548
 N          2.3778715321        0.6300569061        0.0383349303
 C          3.6638633282        0.0374113968        0.1847804786
 C          4.0343943421       -0.5134867170        1.4066170920
 C          5.2777108373       -1.1018909958        1.5479974897
 C          6.1532014733       -1.1456840299        0.4747814001
 C          5.7833802051       -0.5978269035       -0.7430454443
 C          4.5422054358       -0.0061239993       -0.8923680810
 H         -1.0752360108       -4.6116557185        0.6334915544
 H          0.4037164562       -4.4827250361        1.5861697078
 H          0.1690629395       -5.8472186990        0.4898499764
 H          0.5148949631       -3.8159245434       -2.6615218506
 H         -1.0152060585       -4.1853702885       -1.8697212826
 H          0.2062495141       -5.4428586064       -2.0469507728
 H          2.2488541498       -5.4517778756       -0.6882068815
 H          2.6781866966       -3.8792072482       -1.3493630762
 H          2.6450908633       -4.1300484308        0.4050503684
 H          2.5342493673       -1.9588092815       -0.2263439726
 H         -1.6666282325       -2.6625344605       -0.3363118229
 H         -2.9724140528       -2.6967410704        1.2357510865
 H         -5.2890818968       -3.3974669294        1.5755881414
 H         -7.1616818141       -1.9121160328        1.0248639596
 H         -6.7457662366        0.3733100242        0.1752187082
 H         -5.6181577936        2.7746206617       -0.6520491463
 H         -4.0256781282        4.5781246702       -1.2226723245
 H         -1.6300244253        4.2400013749       -1.1193882109
 H          0.0964235234        4.5841030583       -0.0574666569
 H          2.1581046247        5.8738321815        0.2034967139
 H          4.3280407115        4.6984275706        0.4330089712
 H          4.4061808326        2.2617658828        0.3791650353
 H          3.3427970709       -0.4722185114        2.2351825315
 H          5.5636571666       -1.5258539914        2.4987606783
 H          7.1227139502       -1.6059082058        0.5876567413
 H          6.4632632841       -0.6316628768       -1.5808198618
 H          4.2428794213        0.4249171169       -1.8363249924
  64
        -93.65652667
 C         -0.0655233244       -4.8059330829        0.4388038634
 C          0.6766527444       -3.9742699427       -0.6174083059
 C          0.1183880296       -4.2964335991       -2.0114738228
 C          2.1544200390       -4.3735455567       -0.5852626077
 C          0.4667747450       -2.4950517287       -0.3418803594
 C          1.5234814227       -1.5936005412       -0.2143811554
 C          1.2968458324       -0.2191741705       -0.0776100159
 C         -0.0073905371        0.3127214647       -0.0690035254
 C         -1.0614493326       -0.6315832236       -0.0457866785
 C         -0.8256985623       -1.9927668371       -0.2462238332
 N         -2.3452064937       -0.1388656655        0.0940574946
 C         -3.5162505190       -0.7951041185        0.4123910271
 C         -3.7405261906       -2.0570485746        0.9500424805
 C         -5.0441492475       -2.4488564809        1.1888124660
 C         -6.1190726910       -1.5981132805        0.9205111215
 C         -5.9083604491       -0.3168276639        0.4509387327
 C         -4.6076489658        0.1034756546        0.2085465175
 C         -4.0405286639        1.3569751307       -0.1863218247
 C         -4.5689959696        2.6052697109       -0.5143323631
 C         -3.6705852815        3.6188547509       -0.8382768607
 C         -2.3011696029        3.4318139756       -0.8030664106
 C         -1.7103061304        2.2017408362       -0.4250347000
 C         -2.6447151798        1.1771137364       -0.1966011425
 B         -0.2404527922        1.8109419016       -0.1949761212
 C          1.0336874307        2.6672399205       -0.1221465236
 C          1.0560828433        4.0705533876       -0.1157389047
 C          2.2191864903        4.8003544470        0.0078386764
 C          3.4355956420        4.1435594428        0.1544282160
 C          3.4672936361        2.7622493919        0.1686116041
 C          2.2939786760        2.0151390869        0.0146752851
 N          2.3808845533        0.6336742227        0.0188421984
 C          3.6519475622        0.0321757132        0.2384497330
 C          3.9504526206       -0.4934012629        1.4909862085
 C          5.1743411463       -1.0979332402        1.7111279341
 C          6.1027009577       -1.1831674667        0.6857353882
 C          5.8051069930       -0.6602163098       -0.5626263017
 C          4.5834078975       -0.0529292102       -0.7908656777
 H          0.1331778144       -5.8648233620        0.2885446803
 H         -1.1397146201       -4.6559962454        0.3798826807
 H          0.2669846985       -4.5311169981        1.4377449587
 H         -0.9402516831       -4.0597797351       -2.0753861963
 H          0.2469305809       -5.3534798651       -2.2336718475
 H          0.6421444206       -3.7173558801       -2.7690849343
 H          2.2441772141       -5.4435895841       -0.7601997221
 H          2.7174336280       -3.8608628727       -1.3616710878
 H          2.5983059191       -4.1508656045        0.3825750414
 H          2.5365012006       -1.9491470582       -0.2785114430
 H         -1.6663247338       -2.6484270123       -0.3928046868
 H         -2.9272283136       -2.7094130816        1.2267666640
 H         -5.2340743824       -3.4256984680        1.6076124123
 H         -7.1240789435       -1.9424896217        1.1136836133
 H         -6.7367945754        0.3554005842        0.2856852705
 H         -5.6340245072        2.7744172565       -0.5322616263
 H         -4.0591763041        4.5891557441       -1.1164014172
 H         -1.6643134598        4.2583282337       -1.0743720797
 H          0.1180845788        4.5950195995       -0.1877824033
 H          2.1868031830        5.8804327935        0.0054214610
 H          4.3526623019        4.7022358132        0.2640950533
 H          4.4160680276        2.2646280549        0.2982157793
 H          3.2170846644       -0.4220508952        2.2807292551
 H          5.4037067830       -1.5019929163        2.6856450569
 H          7.0571037000       -1.6559642725        0.8596535491
 H          6.5265285811       -0.7262564018       -1.3630554912
 H          4.3409054072        0.3582798665       -1.7596510976
  64
        -93.65649890
 C         -0.4591963224       -4.8579926339       -0.0460263210
 C          0.7143639094       -3.9932333978        0.4310183815
 C          1.9688467503       -4.4443324111       -0.3301333467
 C          0.9253575920       -4.2195615523        1.9352825170
 C          0.4440435194       -2.5140572887        0.2090150320
 C          1.5029648148       -1.6077125271        0.1101826493
 C          1.2823980813       -0.2319824158       -0.0063583823
 C         -0.0223703917        0.3002512579       -0.0141462647
 C         -1.0823156059       -0.6370166727        0.0007040176
 C         -0.8458266352       -2.0053076697        0.1706286441
 N         -2.3713789694       -0.1389674910       -0.0744688222
 C         -3.5667978346       -0.7921389420       -0.3022703165
 C         -3.8423396323       -2.0611736965       -0.7995185388
 C         -5.1629800579       -2.4445623509       -0.9377516365
 C         -6.2104343215       -1.5796760272       -0.6118106416
 C         -5.9553285853       -0.2920376781       -0.1847947592
 C         -4.6370135234        0.1190065369       -0.0424785060
 C         -4.0384355494        1.3754843693        0.2876842818
 C         -4.5384380049        2.6351410609        0.6190739658
 C         -3.6171646534        3.6517893009        0.8581857635
 C         -2.2539776246        3.4541081245        0.7408448997
 C         -1.6974057256        2.2094655460        0.3585614082
 C         -2.6465932733        1.1848782937        0.2108367645
 B         -0.2449664336        1.8033622319        0.0700591423
 C          1.0199650384        2.6554815694       -0.0979568240
 C          1.0325807421        4.0522901286       -0.2384919117
 C          2.1937476456        4.7726988624       -0.4192140944
 C          3.4159501430        4.1120348940       -0.4840710214
 C          3.4551870884        2.7350127810       -0.3741326348
 C          2.2814804924        1.9986346368       -0.1778692734
 N          2.3680534586        0.6204434014       -0.0835891937
 C          3.6635705352        0.0301683430       -0.1243814449
 C          4.4513911384        0.0118766099        1.0208466291
 C          5.7036542867       -0.5744024582        0.9840131154
 C          6.1726773256       -1.1429045790       -0.1892583698
 C          5.3872172196       -1.1239237790       -1.3305778951
 C          4.1340616697       -0.5393110711       -1.3021581383
 H         -0.7154418356       -4.6197587228       -1.0762983088
 H         -1.3379177656       -4.7211356186        0.5785648081
 H         -0.1848401502       -5.9095269644        0.0024085228
 H          1.9054605288       -4.1523047366       -1.3762129908
 H          2.0608755770       -5.5270307137       -0.2803855326
 H          2.8739247270       -4.0196295233        0.0958973575
 H          1.1216223831       -5.2703979721        2.1366169543
 H          1.7684865799       -3.6332992435        2.2942008894
 H          0.0401004544       -3.9187280571        2.4917977575
 H          2.5130130926       -1.9722703022        0.1769864263
 H         -1.6842534704       -2.6565782436        0.3333250087
 H         -3.0606615285       -2.7303220323       -1.1222201831
 H         -5.3891595623       -3.4275797179       -1.3223371635
 H         -7.2293988147       -1.9184567900       -0.7254371072
 H         -6.7631004624        0.3923523052        0.0261533142
 H         -5.5994061387        2.8109825852        0.7010717894
 H         -3.9828921051        4.6314051997        1.1353035255
 H         -1.5925701903        4.2796323221        0.9499687305
 H          0.0894023423        4.5732576847       -0.2249400502
 H          2.1573909835        5.8479928916       -0.5194139847
 H          4.3317844302        4.6645378573       -0.6295867288
 H          4.4078379401        2.2327710131       -0.4468251208
 H          4.0741975059        0.4590437821        1.9286672386
 H          6.3134782172       -0.5883435102        1.8746415405
 H          7.1500464715       -1.5999070939       -0.2143216182
 H          5.7508667174       -1.5647953031       -2.2464040211
 H          3.5113704749       -0.5193376657       -2.1843871617
