  72
        -98.54045247
 C          3.1621171185        3.2760590511        1.4934682932
 C          1.9585005893        2.4162833142        1.2793064374
 C          1.8078811872        1.2180151891        1.9683952264
 C          0.7083713024        0.4075292651        1.7715602435
 C          0.5444800214       -0.8264140703        2.5999208144
 C         -0.2714349174        0.7517420085        0.7959205105
 B         -1.2986160771       -0.3107998563        0.3105045852
 C         -0.8479893490       -1.7149267515       -0.0755330324
 C         -1.7407794827       -2.8173324239       -0.0210408210
 C         -1.3407196568       -4.1161634646       -0.1681796796
 C          0.0076575159       -4.4166300472       -0.4215574332
 C          0.9122435707       -3.3799520485       -0.5330681383
 C          0.5184608166       -2.0529526754       -0.4025452374
 N          1.5016502349       -1.0734561119       -0.5709553258
 C          2.7255663147       -1.0563542093        0.0625377881
 C          3.2330262621       -1.9081268914        1.0358723033
 C          4.4942985733       -1.6452125999        1.5360040400
 C          5.2471217706       -0.5653065085        1.0788739384
 C          4.7530298687        0.2836192386        0.1046086794
 C          3.4874486722        0.0439200702       -0.4055651935
 C          2.6856928022        0.6936390451       -1.4046152478
 C          2.8974498906        1.7756007600       -2.2444633424
 C          1.9196378028        2.0975767065       -3.1680015563
 C          0.7558717802        1.3405327164       -3.2723319234
 C          0.5216010683        0.2613195134       -2.4403963533
 C          1.4800056588       -0.0407006470       -1.4867281692
 C         -2.8439207939        0.0473459317        0.2508561817
 C         -3.4697160398        0.6343006171        1.3654970663
 C         -2.7178017219        0.9203029632        2.6317921474
 C         -4.8261466430        0.9168808349        1.3443309351
 C         -5.6121038082        0.6447401417        0.2336539228
 C         -7.0816384581        0.9418710205        0.2429937125
 C         -4.9930836812        0.0832288629       -0.8696252754
 C         -3.6357885156       -0.2113623078       -0.8796175906
 C         -3.0663983042       -0.7335906007       -2.1684287056
 C         -0.1878486252        2.0467298015        0.2203151330
 C         -1.2837303565        2.5394561487       -0.6696810345
 C          0.9217300981        2.8309943167        0.4383902892
 H          3.3606081791        3.8855754005        0.6145709481
 H          4.0345302363        2.6626234014        1.7087628986
 H          3.0055130904        3.9476470656        2.3396361025
 H          2.5700575157        0.9192258994        2.6748302052
 H          0.6442167979       -1.7221273809        1.9908517759
 H          1.2883581374       -0.8602145172        3.3928989534
 H         -0.4504763107       -0.8546066623        3.0382337125
 H         -2.7783925551       -2.6021877922        0.1859050958
 H         -2.0580796607       -4.9204314067       -0.0884367469
 H          0.3251897611       -5.4378058882       -0.5618506584
 H          1.9417859453       -3.5890225561       -0.7898405245
 H          2.6652427290       -2.7508284394        1.3966069007
 H          4.9074088709       -2.2923159602        2.2954798509
 H          6.2302618532       -0.3947607781        1.4917279267
 H          5.3393486648        1.1170763477       -0.2519632264
 H          3.8113322930        2.3471684474       -2.1847473436
 H          2.0653772125        2.9364231939       -3.8322092947
 H          0.0248687997        1.6001646496       -4.0241916437
 H         -0.3709606208       -0.3322474716       -2.5298069820
 H         -3.2840375345        1.5915915366        3.2739566062
 H         -1.7518816680        1.3660580629        2.4139621178
 H         -2.5471533816       -0.0071880617        3.1793366975
 H         -5.2882474879        1.3481194887        2.2220282431
 H         -7.4910680127        0.9074031746       -0.7636564733
 H         -7.2731804716        1.9259400014        0.6672838861
 H         -7.6098660630        0.2076237406        0.8523410422
 H         -5.5765780877       -0.1159088041       -1.7582519484
 H         -2.2471065733       -1.4186678588       -1.9868443980
 H         -3.8334426430       -1.2496528607       -2.7421564009
 H         -2.7033926595        0.0982296692       -2.7744918767
 H         -1.0053653367        3.4768138344       -1.1457997336
 H         -1.5003621441        1.8000449414       -1.4347109734
 H         -2.1959759560        2.6915614431       -0.0957415250
 H          1.0047099558        3.7870536135       -0.0598245302
  72
        -98.54037243
 C         -0.9127722599        0.6322960284        7.0482520886
 C         -0.7832196855        0.3496867604        5.5812850318
 C         -1.8517789566        0.5134482357        4.7144095147
 C         -1.7290713111        0.2707836644        3.3545448444
 C         -2.9487139324        0.4221729314        2.4954544612
 C         -0.5052526413       -0.1539843582        2.8101155328
 B         -0.3981032986       -0.4228238636        1.2488453067
 C          0.1584306931       -1.7575728594        0.7683467471
 C          0.1336298962       -2.9117013959        1.5956335168
 C          0.4239049637       -4.1671969495        1.1400467471
 C          0.8053533706       -4.3644397980       -0.1977055935
 C          0.8971659348       -3.2694579508       -1.0334028249
 C          0.6260678774       -1.9835973635       -0.5810231359
 N          0.7858421457       -0.9363892219       -1.4913188066
 C          1.6114296545        0.1594357211       -1.3401719040
 C          2.4571635589        0.4767528859       -0.2899397995
 C          3.2193715598        1.6254923351       -0.3988033682
 C          3.1507234646        2.4365431574       -1.5285002821
 C          2.3376167016        2.1029568616       -2.5965394958
 C          1.5711344038        0.9512056091       -2.5117606472
 C          0.6975235689        0.2728909332       -3.4277634880
 C          0.2810410933        0.5377215644       -4.7227717755
 C         -0.5793038598       -0.3540941896       -5.3381808966
 C         -1.0173153954       -1.4999419373       -4.6763385092
 C         -0.6074963390       -1.7894032081       -3.3882361985
 C          0.2537210105       -0.8978466823       -2.7619641268
 C         -0.8837914127        0.6539709371        0.2351568349
 C         -0.4137849161        1.9933927828        0.2850289046
 C          0.3343533399        2.4783924806        1.4854565308
 C         -0.5969262379        2.8370765361       -0.7879936307
 C         -1.3025316295        2.4337449854       -1.9223673050
 C         -1.4804171515        3.3444408031       -3.0937844876
 C         -1.8969840701        1.1755163959       -1.9129057323
 C         -1.7312099441        0.3052702435       -0.8554783316
 C         -2.4827150364       -0.9893672460       -0.8610708048
 C          0.5772173129       -0.3223989339        3.6884484075
 C          1.9538779731       -0.6974572824        3.2167936175
 C          0.4239921217       -0.0699712892        5.0443529821
 H         -1.9575741117        0.7228573585        7.3354911524
 H         -0.4068651941        1.5657382305        7.2981830738
 H         -0.4545781312       -0.1619637075        7.6351825489
 H         -2.8101376897        0.8231509222        5.1086922343
 H         -3.7629317210        0.8791717484        3.0535908107
 H         -2.7273299367        1.0324165645        1.6242268226
 H         -3.2763135824       -0.5565477855        2.1463254440
 H         -0.1735000473       -2.7773401410        2.6219643382
 H          0.3591679661       -5.0168237065        1.8045992186
 H          1.0575439912       -5.3497060301       -0.5565156642
 H          1.2499630669       -3.3941842112       -2.0480614421
 H          2.5196002546       -0.1586722086        0.5759305140
 H          3.8879127873        1.8980384086        0.4049098386
 H          3.7573467100        3.3287213992       -1.5753647539
 H          2.3071427899        2.7196977827       -3.4820151867
 H          0.6249218585        1.4210705430       -5.2399512569
 H         -0.9169484718       -0.1653185436       -6.3463841310
 H         -1.6886583490       -2.1772666991       -5.1831208422
 H         -0.9513927061       -2.6798439955       -2.8869798431
 H          0.7107233237        3.4863890503        1.3268127383
 H          1.1693337016        1.8157015614        1.6929105839
 H         -0.3105985401        2.4746923071        2.3616511325
 H         -0.1753865313        3.8324123894       -0.7597378806
 H         -2.4903453390        3.7582248478       -3.1063155271
 H         -1.3373521408        2.7923443083       -4.0215532495
 H         -0.7736441972        4.1702440621       -3.0558783053
 H         -2.5025820784        0.8779931038       -2.7578021173
 H         -3.2494166296       -0.9734449953       -0.0867967257
 H         -2.9669067920       -1.1467407713       -1.8220111930
 H         -1.8284566175       -1.8295007691       -0.6464225305
 H          2.4983265823        0.1996399586        2.9171456661
 H          2.5154570017       -1.1716131651        4.0194094451
 H          1.9075037517       -1.3771519473        2.3740231524
 H          1.2764022255       -0.1894891808        5.6993043222
  72
        -98.54027720
 C          3.1012253698        3.3847310155        1.3546355582
 C          1.9098248877        2.4951240240        1.2077574477
 C          1.8047968538        1.2989725447        1.9051895019
 C          0.7233565100        0.4550248735        1.7361446420
 C          0.6189094704       -0.7524000868        2.6167827684
 C         -0.2823208950        0.7597325774        0.7774221895
 B         -1.2974166046       -0.3207196810        0.3029613390
 C         -0.8488616182       -1.7208393287       -0.0943749199
 C         -1.7450173462       -2.8231675941       -0.0550344730
 C         -1.3455270029       -4.1209908818       -0.2077834946
 C          0.0043340220       -4.4221186715       -0.4541330037
 C          0.9109739989       -3.3852909955       -0.5528613879
 C          0.5185802500       -2.0593899976       -0.4200488950
 N          1.5045654806       -1.0811998881       -0.5642667699
 C          2.7215403600       -1.0821510555        0.0819583768
 C          3.2034092960       -1.9477187827        1.0555873895
 C          4.4648041037       -1.7092850613        1.5683073092
 C          5.2365205444       -0.6357190953        1.1274763636
 C          4.7640391357        0.2301228188        0.1572020291
 C          3.5017722409        0.0113701988       -0.3706982389
 C          2.7167797624        0.6781689660       -1.3723697083
 C          2.9497544525        1.7619000488       -2.2046831389
 C          1.9826034658        2.1046552623       -3.1318763349
 C          0.8082681225        1.3656567853       -3.2488778930
 C          0.5540169727        0.2829513368       -2.4275105984
 C          1.5021340495       -0.0402695525       -1.4702083313
 C         -2.8476727573        0.0222337990        0.2590296212
 C         -3.4618499316        0.5637341402        1.4009196559
 C         -2.6838238601        0.7744038655        2.6650398533
 C         -4.8127555907        0.8721655195        1.3958197849
 C         -5.6015399980        0.6625309416        0.2743928501
 C         -7.0663135060        0.9832934475        0.2859212690
 C         -4.9955920895        0.1267066189       -0.8502771903
 C         -3.6444362135       -0.1925914577       -0.8752727872
 C         -3.0860249667       -0.6942148199       -2.1770711468
 C         -0.2419564317        2.0528777319        0.1888768662
 C         -1.3617503818        2.5123215072       -0.6897753670
 C          0.8465614985        2.8713324169        0.3818004585
 H          3.6554638490        3.4113598010        0.4156459848
 H          3.7650514851        3.0246887193        2.1372050069
 H          2.7985411525        4.4056654457        1.5871119531
 H          2.5862477164        1.0237528998        2.6001035643
 H         -0.0460210331       -0.5335498474        3.4537753834
 H          0.2053214330       -1.6021130442        2.0832313400
 H          1.5926976841       -1.0149562982        3.0226945798
 H         -2.7836659521       -2.6084106229        0.1469940514
 H         -2.0649223449       -4.9244535685       -0.1381042573
 H          0.3212486830       -5.4426487869       -0.5995799133
 H          1.9420432987       -3.5939115983       -0.8034108789
 H          2.6111509237       -2.7782368696        1.4051306710
 H          4.8614054283       -2.3681781030        2.3265393895
 H          6.2176247579       -0.4819103598        1.5512949586
 H          5.3659419171        1.0599740475       -0.1810019200
 H          3.8727826497        2.3184576433       -2.1385778314
 H          2.1439251956        2.9464679545       -3.7885567973
 H          0.0852714917        1.6425563991       -4.0021447968
 H         -0.3466714680       -0.2972125454       -2.5271528340
 H         -1.8251427197        1.4149513167        2.4803453034
 H         -2.3139312640       -0.1810014207        3.0324358533
 H         -3.3050580247        1.2278773978        3.4341962151
 H         -5.2652364127        1.2743256538        2.2921060359
 H         -7.6399785222        0.1075655375        0.5933519889
 H         -7.4061729689        1.2761941120       -0.7052283419
 H         -7.2810227237        1.7885985093        0.9851221883
 H         -5.5866827945       -0.0318576275       -1.7422179401
 H         -2.7465913876        0.1476084658       -2.7835577974
 H         -2.2516076767       -1.3654413062       -2.0115469384
 H         -3.8526218987       -1.2201262921       -2.7431576013
 H         -1.5416683260        1.7822682648       -1.4729700755
 H         -2.2806020659        2.6078230846       -0.1147619348
 H         -1.1277479942        3.4724973942       -1.1441565504
 H          0.8920855635        3.8271177308       -0.1219499515
