  67
       -114.62273444
 O         -0.2183300302        5.5472268905       -1.2153763715
 S          0.0015066687        4.7961894294        0.0002218432
 O          0.2214775735        5.5469397976        1.2159734234
 C          1.2585580383        3.5600802614       -0.2417938292
 C          1.6940201943        2.8415149329        0.8800644016
 C          2.1520790074        1.5566164086        0.7411443445
 C          2.1748894248        0.9534988021       -0.5272319113
 N          2.4842250314       -0.4214436324       -0.6462451583
 C          3.7029947363       -0.9068530547       -0.2093830850
 C          4.7483517086       -0.0582730536        0.1641194065
 C          5.9467008684       -0.5753531592        0.6105394538
 C          6.1364542581       -1.9506823740        0.6923103874
 C          5.1247892763       -2.8090937950        0.2990155908
 C          3.9199164458       -2.3007947044       -0.1582341545
 O          2.9695423117       -3.1912724274       -0.5618081465
 C          1.7972897655       -2.6996787185       -1.0515118645
 C          0.8552211315       -3.6213107706       -1.4818453708
 C         -0.3711795600       -3.1930089908       -1.9563099805
 C         -0.6594900818       -1.8346053232       -1.9838514329
 C          0.2692626802       -0.9074235391       -1.5523226772
 C          1.5230457312       -1.3159446210       -1.0941152990
 C          1.8346106090        1.7060537581       -1.6607568657
 C          1.3716846709        2.9899077721       -1.5160868875
 C         -1.2560931123        3.5604635133        0.2420370913
 C         -1.3694742747        2.9902190653        1.5161812022
 C         -1.8332138468        1.7065837883        1.6606272171
 C         -2.1741369258        0.9545862828        0.5270043970
 N         -2.4843709704       -0.4201533605        0.6458256358
 C         -3.7035005934       -0.9047185241        0.2090711665
 C         -4.7482228143       -0.0554976305       -0.1646399494
 C         -5.9469945504       -0.5718046554       -0.6108523480
 C         -6.1378216560       -1.9470044519       -0.6920821521
 C         -5.1267066042       -2.8060369170       -0.2987725214
 C         -3.9214134202       -2.2985161001        0.1581826395
 O         -2.9717496531       -3.1896504549        0.5619591938
 C         -1.7991453336       -2.6988098124        1.0516140605
 C         -0.8577979234       -3.6210529678        1.4821257408
 C          0.3689619372       -3.1936149560        1.9564639645
 C          0.6582868743       -1.8353928095        1.9837346311
 C         -0.2697437999       -0.9076141141        1.5518727967
 C         -1.5238316385       -1.3152564447        1.0937740484
 C         -2.1510865439        1.5579046747       -0.7412171565
 C         -1.6921172084        2.8425341245       -0.8799323643
 H          1.6276089994        3.3121474544        1.8474573540
 H          2.4648569538        0.9863390811        1.6036298647
 H          4.6080187395        1.0082660073        0.0887527255
 H          6.7411916560        0.0971618936        0.8932783547
 H          7.0726342220       -2.3505287255        1.0468668722
 H          5.2494829585       -3.8795400726        0.3307004934
 H          1.1053603936       -4.6683812807       -1.4280448591
 H         -1.1002529651       -3.9129362092       -2.2916543732
 H         -1.6196110076       -1.4954958757       -2.3430648387
 H          0.0235677686        0.1415859066       -1.5548196248
 H          1.9290365390        1.2591155590       -2.6396369231
 H          1.0706687044        3.5790382543       -2.3670773182
 H         -1.0681186357        3.5789896438        2.3672977186
 H         -1.9280877935        1.2596455697        2.6394651222
 H         -4.6070590671        1.0109757763       -0.0897959410
 H         -6.7410449929        0.1012153983       -0.8936049293
 H         -7.0741369993       -2.3462721467       -1.0469541785
 H         -5.2522493349       -3.8764030272       -0.3299803290
 H         -1.1087274130       -4.6679563539        1.4285587316
 H          1.0972898208       -3.9139975136        2.2924850756
 H          1.6188060471       -1.4969712402        2.3425182386
 H         -0.0232813255        0.1412481746        1.5542932687
 H         -2.4639518581        0.9879168825       -1.6038648892
 H         -1.6250046696        3.3131094489       -1.8473089220
