  67
  -114.243204693700       0.858062467531943      !
 O         -0.0783270523        5.0467515961       -1.1920116339
 S          0.0196498326        4.2849781193        0.0338597689
 O          0.1092615372        5.0214938355        1.2756447849
 C          1.3402845924        3.1070892490       -0.0778453977
 C          1.8373116753        2.5328692932        1.0960796586
 C          2.6074519527        1.3982436914        1.0327647608
 C          2.8774723333        0.8092904600       -0.2103544933
 N          3.6145797113       -0.4010953394       -0.2700502673
 C          4.9641170120       -0.4160991642        0.0282634861
 C          5.6732831733        0.7511853692        0.3139132982
 C          7.0203215760        0.6976612491        0.6087510965
 C          7.6929930056       -0.5205343571        0.6218529734
 C          7.0123807746       -1.6872617688        0.3248467682
 C          5.6598901710       -1.6457948141        0.0244507697
 O          5.0405687728       -2.8221889651       -0.2777301442
 C          3.7150696757       -2.7895051221       -0.5924764749
 C          3.0979611162       -3.9915589624       -0.9035947293
 C          1.7515364742       -4.0204491350       -1.2177080411
 C          1.0126757635       -2.8413546854       -1.2109188468
 C          1.6146709694       -1.6393706176       -0.8952222294
 C          2.9754372216       -1.5848244994       -0.5920474899
 C          2.3987989491        1.3980995412       -1.3888290236
 C          1.6327896561        2.5352084853       -1.3199293989
 C         -1.2904856690        3.0928029727        0.1199255520
 C         -1.6009415191        2.5105007150        1.3524935512
 C         -2.3770865493        1.3791418709        1.4016605742
 C         -2.8459957475        0.8037294695        0.2121303229
 N         -3.6085329672       -0.3910922476        0.2539309569
 C         -4.9478780218       -0.3798972662       -0.0890462542
 C         -5.6208809610        0.7976581767       -0.4182739206
 C         -6.9583549743        0.7694490473       -0.7563133998
 C         -7.6595180603       -0.4328850819       -0.7684090258
 C         -7.0165342828       -1.6086775728       -0.4276666390
 C         -5.6732854769       -1.5929186973       -0.0854358429
 O         -5.0934394324       -2.7774392752        0.2585708178
 C         -3.7775505875       -2.7714265831        0.6113949342
 C         -3.2000215423       -3.9827537460        0.9600171982
 C         -1.8640529515       -4.0398988635        1.3122634562
 C         -1.0955950727       -2.8795038311        1.3060443607
 C         -1.6582160531       -1.6685146282        0.9550054021
 C         -3.0084955059       -1.5846785527        0.6130003581
 C         -2.5479961724        1.3972642033       -1.0225312813
 C         -1.7705033910        2.5278225834       -1.0656950155
 H          1.6001985515        3.0033590025        2.0363015725
 H          2.9980750663        0.9409505345        1.9301343522
 H          5.1536346000        1.6960556930        0.2949173967
 H          7.5516552261        1.6104477211        0.8271949641
 H          8.7449101506       -0.5575684035        0.8550317601
 H          7.5094801698       -2.6440057850        0.3154602156
 H          3.6945087499       -4.8896737412       -0.8913296304
 H          1.2764466771       -4.9568856077       -1.4616872563
 H         -0.0395981951       -2.8612932777       -1.4469217403
 H          1.0363248044       -0.7293517929       -0.8783147660
 H          2.6388991815        0.9464147525       -2.3402076272
 H          1.2486303897        3.0122189687       -2.2066375566
 H         -1.2249722594        2.9767942075        2.2484608389
 H         -2.6346240028        0.9228194855        2.3462289471
 H         -5.0815308047        1.7312966460       -0.3984578898
 H         -7.4605828394        1.6899269266       -1.0088159465
 H         -8.7040812014       -0.4498134826       -1.0344181179
 H         -7.5361220507       -2.5533467498       -0.4154332483
 H         -3.8187398895       -4.8657069209        0.9450644521
 H         -1.4197924682       -4.9835362793        1.5845914144
 H         -0.0504567802       -2.9216131932        1.5692660291
 H         -1.0558721007       -0.7743188425        0.9385256697
 H         -2.9249190645        0.9478225402       -1.9297025347
 H         -1.5174736371        3.0036796799       -1.9989210693
  67
  -114.241318017000       0.116536595872030      !
 O         -0.0804592790        5.1457822702       -1.2485640775
 S          0.0220640383        4.4043158022       -0.0108799452
 O          0.1292503056        5.1620771553        1.2164639492
 C          1.3223810767        3.2024477304       -0.1170033591
 C          1.7778932737        2.5980956378        1.0592974442
 C          2.4926041759        1.4280877675        0.9982065022
 C          2.7513044399        0.8336716721       -0.2451622216
 N          3.4206337968       -0.4147806395       -0.2986965939
 C          4.7462516662       -0.5152205424        0.0800729350
 C          5.5139783815        0.6068076687        0.3967271387
 C          6.8336407647        0.4685961734        0.7745287679
 C          7.4211835947       -0.7912020741        0.8430937035
 C          6.6836151216       -1.9144185564        0.5159496691
 C          5.3583029279       -1.7877540456        0.1307187557
 O          4.6811280350       -2.9245256057       -0.1973151615
 C          3.3857811580       -2.8076245861       -0.6034302277
 C          2.7125837721       -3.9713906522       -0.9439934136
 C          1.3922317191       -3.9170495860       -1.3504527601
 C          0.7351517830       -2.6921077269       -1.4063708341
 C          1.3928153746       -1.5271842217       -1.0623221753
 C          2.7289971602       -1.5571138698       -0.6636131606
 C          2.3231169779        1.4564330935       -1.4259173642
 C          1.6090306487        2.6269884715       -1.3589857431
 C         -1.2866584991        3.2125393462        0.1075430250
 C         -1.5680934355        2.6386746424        1.3515397018
 C         -2.2931852745        1.4750465876        1.4233439472
 C         -2.7390504575        0.8588901555        0.2460701889
 N         -3.4232050807       -0.3817435951        0.3041871364
 C         -4.7572752462       -0.4624507985       -0.0479750249
 C         -5.5159925220        0.6714044219       -0.3432152162
 C         -6.8458770629        0.5531663402       -0.6909463582
 C         -7.4528513079       -0.6979443844       -0.7494889646
 C         -6.7232222364       -1.8328717222       -0.4457087773
 C         -5.3871869356       -1.7264715356       -0.0925093176
 O         -4.7169891830       -2.8745303134        0.2093458632
 C         -3.4102781856       -2.7778636557        0.5830065503
 C         -2.7419062428       -3.9534756392        0.8908224817
 C         -1.4124444000       -3.9186856442        1.2684342365
 C         -0.7419312263       -2.7012728654        1.3300942683
 C         -1.3939526359       -1.5249045644        1.0156666128
 C         -2.7378870236       -1.5356838793        0.6433008023
 C         -2.4848479532        1.4515817850       -0.9990816291
 C         -1.7578097025        2.6137148002       -1.0651767788
 H          1.5498666025        3.0714439874        2.0002432431
 H          2.8456634440        0.9457242673        1.8981191379
 H          5.0612131228        1.5837432525        0.3354413670
 H          7.4108014508        1.3473220454        1.0153583178
 H          8.4518018601       -0.8942699838        1.1421474748
 H          7.1151506115       -2.9019955824        0.5474619845
 H          3.2465234181       -4.9060216591       -0.8808368161
 H          0.8735383849       -4.8238393010       -1.6161756569
 H         -0.2961543892       -2.6460751789       -1.7182268812
 H          0.8736319491       -0.5828740818       -1.0923914957
 H          2.5597110104        1.0037754843       -2.3776675117
 H          1.2597028262        3.1273608471       -2.2473230900
 H         -1.2065737364        3.1340270958        2.2377867257
 H         -2.5247560630        1.0229092092        2.3765901262
 H         -5.0480036234        1.6416043611       -0.2889739698
 H         -7.4160248235        1.4407924713       -0.9152404875
 H         -8.4918741687       -0.7851967399       -1.0233378504
 H         -7.1690820040       -2.8142403265       -0.4716258303
 H         -3.2873230300       -4.8814235670        0.8271192151
 H         -0.8976677458       -4.8344538680        1.5097831069
 H          0.2952435032       -2.6702989805        1.6238829062
 H         -0.8648545332       -0.5861698737        1.0489759369
 H         -2.8514214302        0.9741449313       -1.8961987926
 H         -1.5313282155        3.0854164120       -2.0073386254
  67
  -114.239878377300       2.540093659602715E-002 !
 O         -0.0795186103        5.2158381281       -1.2247980440
 S          0.0221942011        4.4637808820        0.0062908737
 O          0.1291556862        5.2107648619        1.2400750009
 C          1.3178671937        3.2570338681       -0.1088316587
 C          1.7591203985        2.6335810179        1.0631339296
 C          2.4454045331        1.4472981188        0.9939751931
 C          2.6897338734        0.8552132059       -0.2536496613
 N          3.3165865543       -0.4146762347       -0.3143072194
 C          4.6345193401       -0.5651074281        0.0747147395
 C          5.4418605078        0.5277508387        0.3946532347
 C          6.7532013459        0.3404464863        0.7805005881
 C          7.2923342709       -0.9400621865        0.8537874173
 C          6.5143592015       -2.0353967781        0.5245734496
 C          5.1971982989       -1.8592424108        0.1318880223
 O          4.4784986594       -2.9708711336       -0.1955244459
 C          3.1922937988       -2.8050325228       -0.6144129450
 C          2.4778145949       -3.9434265524       -0.9549018097
 C          1.1643201696       -3.8401316408       -1.3748082200
 C          0.5579351792       -2.5909840969       -1.4449001771
 C          1.2566286306       -1.4504306636       -1.1007756709
 C          2.5859267863       -1.5305616623       -0.6861257267
 C          2.2824527793        1.4994389847       -1.4300077669
 C          1.5966155516        2.6862818947       -1.3551224244
 C         -1.2818727847        3.2659968386        0.1185993774
 C         -1.5640136386        2.6948357474        1.3640087492
 C         -2.2608426590        1.5143493660        1.4375304407
 C         -2.6764683807        0.8768160114        0.2603815047
 N         -3.3192171264       -0.3852947820        0.3180271379
 C         -4.6387271991       -0.5164042102       -0.0713355597
 C         -5.4338174905        0.5889372838       -0.3801151522
 C         -6.7469266743        0.4206256581       -0.7674572181
 C         -7.3008696095       -0.8535750539       -0.8544825659
 C         -6.5357447558       -1.9609403918       -0.5366795473
 C         -5.2166053220       -1.8041974254       -0.1417251776
 O         -4.5102977708       -2.9264662629        0.1744545428
 C         -3.2238341436       -2.7795871798        0.5978496300
 C         -2.5225423353       -3.9292917694        0.9288557960
 C         -1.2095265369       -3.8447165286        1.3533655665
 C         -0.5891868852       -2.6024555178        1.4382398140
 C         -1.2737662313       -1.4510530026        1.1030188763
 C         -2.6026277221       -1.5120847225        0.6832995496
 C         -2.4276274005        1.4690922878       -0.9863476712
 C         -1.7298114031        2.6486881137       -1.0541094198
 H          1.5393022868        3.1040089554        2.0075032090
 H          2.7847205989        0.9493646392        1.8907480446
 H          5.0265125956        1.5209689253        0.3287022267
 H          7.3616332434        1.1972735343        1.0231080108
 H          8.3163901581       -1.0816869232        1.1587608883
 H          6.9078217162       -3.0384873820        0.5606954835
 H          2.9741610141       -4.8977524553       -0.8813925396
 H          0.6131986714       -4.7274137241       -1.6409618484
 H         -0.4675542107       -2.5062183202       -1.7679192296
 H          0.7746411204       -0.4871013592       -1.1411492254
 H          2.5109393155        1.0494257777       -2.3850109188
 H          1.2613381516        3.2015899136       -2.2403271517
 H         -1.2229344211        3.2055073564        2.2496542185
 H         -2.4925454679        1.0647712426        2.3919244874
 H         -5.0069116649        1.5764953210       -0.3040195410
 H         -7.3462009767        1.2865804554       -1.0005159616
 H         -8.3266537725       -0.9798763855       -1.1610004818
 H         -6.9407375848       -2.9590969647       -0.5836232982
 H         -3.0292918189       -4.8772751095        0.8442922296
 H         -0.6686711578       -4.7405134117        1.6119562726
 H          0.4360563319       -2.5327684758        1.7656582911
 H         -0.7812533837       -0.4935139514        1.1544152249
 H         -2.7733531677        0.9764475682       -1.8835712830
 H         -1.5068601846        3.1186715985       -1.9979684896
