  67
       -114.62273444
 O         -0.2183300302        5.5472268905       -1.2153763715
 S          0.0015066687        4.7961894294        0.0002218432
 O          0.2214775735        5.5469397976        1.2159734234
 C          1.2585580383        3.5600802614       -0.2417938292
 C          1.6940201943        2.8415149329        0.8800644016
 C          2.1520790074        1.5566164086        0.7411443445
 C          2.1748894248        0.9534988021       -0.5272319113
 N          2.4842250314       -0.4214436324       -0.6462451583
 C          3.7029947363       -0.9068530547       -0.2093830850
 C          4.7483517086       -0.0582730536        0.1641194065
 C          5.9467008684       -0.5753531592        0.6105394538
 C          6.1364542581       -1.9506823740        0.6923103874
 C          5.1247892763       -2.8090937950        0.2990155908
 C          3.9199164458       -2.3007947044       -0.1582341545
 O          2.9695423117       -3.1912724274       -0.5618081465
 C          1.7972897655       -2.6996787185       -1.0515118645
 C          0.8552211315       -3.6213107706       -1.4818453708
 C         -0.3711795600       -3.1930089908       -1.9563099805
 C         -0.6594900818       -1.8346053232       -1.9838514329
 C          0.2692626802       -0.9074235391       -1.5523226772
 C          1.5230457312       -1.3159446210       -1.0941152990
 C          1.8346106090        1.7060537581       -1.6607568657
 C          1.3716846709        2.9899077721       -1.5160868875
 C         -1.2560931123        3.5604635133        0.2420370913
 C         -1.3694742747        2.9902190653        1.5161812022
 C         -1.8332138468        1.7065837883        1.6606272171
 C         -2.1741369258        0.9545862828        0.5270043970
 N         -2.4843709704       -0.4201533605        0.6458256358
 C         -3.7035005934       -0.9047185241        0.2090711665
 C         -4.7482228143       -0.0554976305       -0.1646399494
 C         -5.9469945504       -0.5718046554       -0.6108523480
 C         -6.1378216560       -1.9470044519       -0.6920821521
 C         -5.1267066042       -2.8060369170       -0.2987725214
 C         -3.9214134202       -2.2985161001        0.1581826395
 O         -2.9717496531       -3.1896504549        0.5619591938
 C         -1.7991453336       -2.6988098124        1.0516140605
 C         -0.8577979234       -3.6210529678        1.4821257408
 C          0.3689619372       -3.1936149560        1.9564639645
 C          0.6582868743       -1.8353928095        1.9837346311
 C         -0.2697437999       -0.9076141141        1.5518727967
 C         -1.5238316385       -1.3152564447        1.0937740484
 C         -2.1510865439        1.5579046747       -0.7412171565
 C         -1.6921172084        2.8425341245       -0.8799323643
 H          1.6276089994        3.3121474544        1.8474573540
 H          2.4648569538        0.9863390811        1.6036298647
 H          4.6080187395        1.0082660073        0.0887527255
 H          6.7411916560        0.0971618936        0.8932783547
 H          7.0726342220       -2.3505287255        1.0468668722
 H          5.2494829585       -3.8795400726        0.3307004934
 H          1.1053603936       -4.6683812807       -1.4280448591
 H         -1.1002529651       -3.9129362092       -2.2916543732
 H         -1.6196110076       -1.4954958757       -2.3430648387
 H          0.0235677686        0.1415859066       -1.5548196248
 H          1.9290365390        1.2591155590       -2.6396369231
 H          1.0706687044        3.5790382543       -2.3670773182
 H         -1.0681186357        3.5789896438        2.3672977186
 H         -1.9280877935        1.2596455697        2.6394651222
 H         -4.6070590671        1.0109757763       -0.0897959410
 H         -6.7410449929        0.1012153983       -0.8936049293
 H         -7.0741369993       -2.3462721467       -1.0469541785
 H         -5.2522493349       -3.8764030272       -0.3299803290
 H         -1.1087274130       -4.6679563539        1.4285587316
 H          1.0972898208       -3.9139975136        2.2924850756
 H          1.6188060471       -1.4969712402        2.3425182386
 H         -0.0232813255        0.1412481746        1.5542932687
 H         -2.4639518581        0.9879168825       -1.6038648892
 H         -1.6250046696        3.3131094489       -1.8473089220
  67
       -114.62178115
 O         -0.2134998701        5.4877631286       -1.2140019936
 S         -0.0025146125        4.7359572552        0.0028870380
 O          0.1960448034        5.4867098600        1.2224695489
 C          1.2689390539        3.5141666398       -0.2258239621
 C          1.7006065731        2.8000680261        0.8998897324
 C          2.2022583632        1.5315360240        0.7596932008
 C          2.2748513075        0.9452629343       -0.5134800468
 N          2.6664377890       -0.4098008610       -0.6372408571
 C          3.9348240334       -0.8070761619       -0.2579190365
 C          4.9327468549        0.1147340230        0.0660879851
 C          6.1868960108       -0.3155359423        0.4469708367
 C          6.4779205062       -1.6740001420        0.5126582986
 C          5.5092284919       -2.6034214764        0.1764092339
 C          4.2483223810       -2.1825699404       -0.2138302602
 O          3.3355008548       -3.1378796442       -0.5537367755
 C          2.1107664744       -2.7294614954       -0.9897689756
 C          1.2064738144       -3.7132691790       -1.3597827619
 C         -0.0606777929       -3.3658974290       -1.7904417334
 C         -0.4281557103       -2.0270864597       -1.8397361036
 C          0.4599860197       -1.0382560221       -1.4631253363
 C          1.7487849453       -1.3662999116       -1.0410247551
 C          1.9185360983        1.6877330728       -1.6474919165
 C          1.4113220271        2.9547332604       -1.5015277017
 C         -1.2555106765        3.4942376539        0.2266569213
 C         -1.3880892069        2.9248748656        1.4991891454
 C         -1.8899435832        1.6552035481        1.6393403236
 C         -2.2514982601        0.9190078418        0.5027289438
 N         -2.6539279995       -0.4327452383        0.6227308191
 C         -3.9232130890       -0.8187843388        0.2337058688
 C         -4.9051548695        0.1099191622       -0.1191965199
 C         -6.1585169014       -0.3103224644       -0.5130943589
 C         -6.4666952273       -1.6660518647       -0.5612031247
 C         -5.5165464868       -2.6016561799       -0.1919322834
 C         -4.2560476877       -2.1907880734        0.2108674186
 O         -3.3647214967       -3.1518577910        0.5871681955
 C         -2.1371961575       -2.7540971293        1.0240639436
 C         -1.2529798941       -3.7442011583        1.4244309583
 C          0.0179915030       -3.4089133848        1.8529161775
 C          0.4099579908       -2.0755815364        1.8684825157
 C         -0.4589093401       -1.0807646440        1.4655947911
 C         -1.7529968848       -1.3955801456        1.0473494903
 C         -2.1824057790        1.5128475047       -0.7675367344
 C         -1.6854235268        2.7838739969       -0.9018455986
 H          1.6013188073        3.2614803530        1.8687916924
 H          2.5172081850        0.9620267724        1.6222691733
 H          4.7100354816        1.1681886285        0.0049146539
 H          6.9452492111        0.4119105052        0.6901484464
 H          7.4584232262       -2.0057643351        0.8137889486
 H          5.7105022724       -3.6622700114        0.2034519364
 H          1.5194663512       -4.7429710529       -1.2986816306
 H         -0.7589977738       -4.1343375021       -2.0803545738
 H         -1.4167716119       -1.7515413509       -2.1742636612
 H          0.1571757198       -0.0040034152       -1.4814641348
 H          2.0362041438        1.2468125854       -2.6265853990
 H          1.1004141482        3.5390011245       -2.3522489383
 H         -1.0768036476        3.5052321436        2.3523756713
 H         -2.0020025808        1.2081987523        2.6163226951
 H         -4.6714537509        1.1615273877       -0.0706208404
 H         -6.9030225071        0.4227882389       -0.7807053273
 H         -7.4462669643       -1.9898319548       -0.8737145224
 H         -5.7319697726       -3.6580263807       -0.2018732357
 H         -1.5843655959       -4.7693353142        1.3869387232
 H          0.7012197680       -4.1817850127        2.1658545120
 H          1.4029398183       -1.8103646905        2.1982947312
 H         -0.1384411387       -0.0516417725        1.4608847594
 H         -2.4964110347        0.9470831813       -1.6328252660
 H         -1.5877799787        3.2498677222       -1.8687773080
  67
       -114.61964376
 O         -0.2165091976        5.2837237357       -1.2233750578
 S          0.0005246520        4.5369300059       -0.0040525888
 O          0.2172157624        5.2898615627        1.2115390842
 C          1.2768444859        3.3257690590       -0.2358770119
 C          1.7928467457        2.6758817994        0.8910244929
 C          2.4309478401        1.4689031931        0.7564445930
 C          2.5520858499        0.8816388310       -0.5118204348
 N          3.1273670642       -0.4078792069       -0.6319668607
 C          4.4648513695       -0.6060594503       -0.3440241112
 C          5.3310669418        0.4564105344       -0.0794152961
 C          6.6607008212        0.2219016576        0.2044501024
 C          7.1600577216       -1.0767020397        0.2283057717
 C          6.3224408621       -2.1424459713       -0.0481160512
 C          4.9859661038       -1.9187877589       -0.3381522212
 O          4.2066308273       -3.0024775063       -0.6172209623
 C          2.9004364407       -2.7890287012       -0.9428535514
 C          2.1254292856       -3.8991803876       -1.2390823500
 C          0.7892180244       -3.7478557049       -1.5633373259
 C          0.2240555131       -2.4780827525       -1.5843103226
 C          0.9824095151       -1.3650111655       -1.2813675726
 C          2.3348658037       -1.4939796794       -0.9616907482
 C          2.0747444061        1.5526362750       -1.6460342489
 C          1.4371132624        2.7600053989       -1.5058068300
 C         -1.2755211787        3.3264484408        0.2327808077
 C         -1.4345489741        2.7636000375        1.5041859820
 C         -2.0725906750        1.5567750999        1.6478910581
 C         -2.5515383185        0.8835014200        0.5157732866
 N         -3.1277698367       -0.4054556585        0.6383383569
 C         -4.4657149951       -0.6021930129        0.3520666617
 C         -5.3324004339        0.4617808842        0.0948505727
 C         -6.6630868963        0.2289879010       -0.1851020658
 C         -7.1631185007       -1.0693724909       -0.2123171695
 C         -6.3246537842       -2.1367330365        0.0549947567
 C         -4.9868794528       -1.9148994456        0.3403943211
 O         -4.2057982579       -3.0001680997        0.6077016283
 C         -2.8995151278       -2.7883075378        0.9336032188
 C         -2.1230728873       -3.9002206833        1.2193832239
 C         -0.7875315645       -3.7501929958        1.5465695226
 C         -0.2244447783       -2.4798450532        1.5816030966
 C         -0.9836937212       -1.3650833678        1.2871264608
 C         -2.3351265104       -1.4929503712        0.9631550145
 C         -2.4319078880        1.4680705847       -0.7539778105
 C         -1.7932739769        2.6743497167       -0.8920500611
 H          1.6645338806        3.1411818706        1.8546319356
 H          2.8244997819        0.9500574635        1.6186112542
 H          4.9460595223        1.4634482559       -0.1077686818
 H          7.3149176684        1.0557424814        0.4046712559
 H          8.1991707142       -1.2551447811        0.4532132628
 H          6.6834618744       -3.1583881711       -0.0490311036
 H          2.5924244051       -4.8704931753       -1.2068659593
 H          0.1906528303       -4.6137058837       -1.7950881185
 H         -0.8188995449       -2.3563286845       -1.8314235317
 H          0.5321177816       -0.3855755550       -1.2806128187
 H          2.2112174029        1.1064353058       -2.6202252066
 H          1.0475579562        3.2951964266       -2.3562928958
 H         -1.0440979158        3.3005470344        2.3531228035
 H         -2.2086754054        1.1132759838        2.6233555903
 H         -4.9466873247        1.4685448592        0.1258431995
 H         -7.3176024140        1.0638152305       -0.3801819696
 H         -8.2034129089       -1.2462715956       -0.4329182082
 H         -6.6859339592       -3.1526081728        0.0521068525
 H         -2.5887257447       -4.8717715877        1.1774021366
 H         -0.1877151952       -4.6174678702        1.7696867361
 H          0.8174316581       -2.3588973140        1.8333140774
 H         -0.5347077879       -0.3851226167        1.2961945028
 H         -2.8271518840        0.9476918825       -1.6143639165
 H         -1.6657087848        3.1374838156       -1.8567776022
  67
       -114.61937660
 O         -0.2268307102        5.2124914997       -1.2206150218
 S         -0.0006257892        4.4638385469       -0.0041177506
 O          0.2232323251        5.2142364801        1.2117932595
 C          1.2837371477        3.2633458417       -0.2438867392
 C          1.8413463682        2.6448616602        0.8801463839
 C          2.5236948880        1.4618807469        0.7460098217
 C          2.6472497016        0.8681108592       -0.5185061634
 N          3.2717285329       -0.3987538036       -0.6381846059
 C          4.6222957002       -0.5416548940       -0.3803822376
 C          5.4514613699        0.5559890948       -0.1433979364
 C          6.7953491850        0.3761748824        0.1119611909
 C          7.3457611353       -0.9014356980        0.1342237394
 C          6.5449197076       -2.0014302472       -0.1148744582
 C          5.1946259885       -1.8328110786       -0.3764456672
 O          4.4530342168       -2.9487976820       -0.6295505045
 C          3.1310234022       -2.7904000313       -0.9202230920
 C          2.3924856171       -3.9331609538       -1.1867068260
 C          1.0435446692       -3.8374454407       -1.4755938231
 C          0.4266855771       -2.5915256871       -1.4880056478
 C          1.1498605438       -1.4466761397       -1.2163554495
 C          2.5138904646       -1.5191610538       -0.9342961432
 C          2.1229069854        1.5075279341       -1.6502895598
 C          1.4415633833        2.6910845000       -1.5104991388
 C         -1.2810509374        3.2597883591        0.2380910501
 C         -1.4363714452        2.6901350620        1.5062565037
 C         -2.1164142552        1.5063402823        1.6501172545
 C         -2.6424394725        0.8639741438        0.5207208001
 N         -3.2697993460       -0.4012094367        0.6436139266
 C         -4.6204981195       -0.5398533647        0.3861444938
 C         -5.4478644436        0.5607563097        0.1550243152
 C         -6.7918003002        0.3849476230       -0.1009954633
 C         -7.3449485928       -0.8922185013       -0.1307830192
 C         -6.5465042006       -1.9949813142        0.1122674347
 C         -5.1957584013       -1.8306930117        0.3752908116
 O         -4.4559271816       -2.9486582051        0.6225374674
 C         -3.1348501882       -2.7943311110        0.9170951944
 C         -2.3984090197       -3.9397221086        1.1796400355
 C         -1.0504736498       -3.8475619783        1.4728102117
 C         -0.4312959181       -2.6020067370        1.4939860916
 C         -1.1515291706       -1.4548437972        1.2256002468
 C         -2.5148852210       -1.5235291109        0.9387123711
 C         -2.5204971397        1.4545720207       -0.7455220180
 C         -1.8389011070        2.6374946985       -0.8837461836
 H          1.7129997291        3.1163895602        1.8406901685
 H          2.9521460355        0.9677579575        1.6059789914
 H          5.0264557485        1.5469521697       -0.1700061529
 H          7.4202018227        1.2366115545        0.2919840788
 H          8.3955689680       -1.0372027251        0.3372697268
 H          6.9452647480       -3.0024454018       -0.1157801718
 H          2.8986360301       -4.8848080707       -1.1606140345
 H          0.4735677259       -4.7281040608       -1.6846288959
 H         -0.6260260700       -2.5126661909       -1.7087643441
 H          0.6612105044       -0.4858760930       -1.2109018314
 H          2.2587275666        1.0564330790       -2.6223056118
 H          1.0181779814        3.2026289213       -2.3593853532
 H         -1.0125315433        3.2045846868        2.3531270624
 H         -2.2507935033        1.0578400367        2.6234950971
 H         -5.0207124078        1.5506207435        0.1869546098
 H         -7.4156053230        1.2473346934       -0.2755795770
 H         -8.3952278086       -1.0243857242       -0.3347040878
 H         -6.9489277770       -2.9952658538        0.1072121104
 H         -2.9060561836       -4.8904331550        1.1470622480
 H         -0.4821370407       -4.7400242134        1.6786023587
 H          0.6207960834       -2.5264067211        1.7188635140
 H         -0.6613608017       -0.4947263125        1.2265541761
 H         -2.9501937336        0.9580985739       -1.6034907175
 H         -1.7123016406        3.1063807156       -1.8458169417
  67
       -114.61916597
 O         -0.2304782992        5.1454616327       -1.2310830447
 S         -0.0018807971        4.4043724075       -0.0101508159
 O          0.2225847082        5.1625163402        1.2010045059
 C          1.2876929069        3.2093042649       -0.2454915003
 C          1.8607379680        2.6071734488        0.8794414895
 C          2.5719021196        1.4409103950        0.7470094989
 C          2.7090810557        0.8480164389       -0.5162722593
 N          3.3762427654       -0.3969272623       -0.6367352227
 C          4.7333915167       -0.4905157033       -0.3913666508
 C          5.5229303095        0.6354514121       -0.1516834213
 C          6.8742521854        0.5040610173        0.0932880995
 C          7.4721997686       -0.7526706698        0.1024262755
 C          6.7116359159       -1.8796676272       -0.1506867858
 C          5.3540150074       -1.7598524732       -0.4024981504
 O          4.6535279541       -2.9000898004       -0.6624950579
 C          3.3237034425       -2.7898791979       -0.9380657725
 C          2.6260710946       -3.9570882726       -1.2109421981
 C          1.2716541202       -3.9095669039       -1.4844162822
 C          0.6059475747       -2.6880548392       -1.4740962650
 C          1.2884626202       -1.5197696778       -1.1962102330
 C          2.6577362839       -1.5427965082       -0.9320023123
 C          2.1626887588        1.4686991840       -1.6483355902
 C          1.4527225252        2.6355122037       -1.5101533024
 C         -1.2862308585        3.2057830667        0.2367060508
 C         -1.4399333914        2.6302936259        1.5021077612
 C         -2.1483069516        1.4628969148        1.6447124336
 C         -2.7055429229        0.8445861088        0.5170609663
 N         -3.3741412300       -0.3996002962        0.6419358019
 C         -4.7361256796       -0.4872040874        0.4237638926
 C         -5.5262317464        0.6427256601        0.2059623662
 C         -6.8834178890        0.5176126933       -0.0082398820
 C         -7.4867331912       -0.7366330509       -0.0071106251
 C         -6.7247190162       -1.8677874814        0.2220729208
 C         -5.3608090234       -1.7544809646        0.4410988277
 O         -4.6580554291       -2.8990757929        0.6742524245
 C         -3.3212451940       -2.7956580864        0.9165405915
 C         -2.6195748484       -3.9678160539        1.1557887108
 C         -1.2594146726       -3.9261562635        1.3997119171
 C         -0.5923912622       -2.7052776487        1.3953613282
 C         -1.2784515448       -1.5322773647        1.1479130086
 C         -2.6526165024       -1.5500028494        0.9106608103
 C         -2.5791500360        1.4387606054       -0.7467771706
 C         -1.8682657501        2.6046716619       -0.8838949020
 H          1.7247131028        3.0792016786        1.8386705579
 H          3.0149590572        0.9602703451        1.6071570662
 H          5.0612774621        1.6100249334       -0.1671288130
 H          7.4679040870        1.3857472232        0.2762617095
 H          8.5279148818       -0.8504121012        0.2977270013
 H          7.1492660846       -2.8649889608       -0.1627695163
 H          3.1684639932       -4.8889354547       -1.2016581727
 H          0.7338566837       -4.8190088460       -1.6979772601
 H         -0.4514270404       -2.6473498546       -1.6821050099
 H          0.7639844821       -0.5781711263       -1.1740272643
 H          2.3060601802        1.0174074689       -2.6191519550
 H          1.0144335397        3.1341787528       -2.3591410064
 H         -0.9948649372        3.1274021551        2.3484537393
 H         -2.2818565927        1.0094318606        2.6159309748
 H         -5.0601898549        1.6153414596        0.2141541880
 H         -7.4775781867        1.4022888227       -0.1743066176
 H         -8.5473282349       -0.8292564492       -0.1766209509
 H         -7.1658743556       -2.8514604032        0.2398637283
 H         -3.1638185829       -4.8985822255        1.1458879067
 H         -0.7185149001       -4.8392646565        1.5882224453
 H          0.4686331395       -2.6689442622        1.5848597952
 H         -0.7535159390       -0.5908054405        1.1291951389
 H         -3.0304179215        0.9595425861       -1.6034268388
 H         -1.7387820257        3.0776726982       -1.8435663064
  67
       -114.61882363
 O         -0.2272689332        5.0400997787       -1.2010293869
 S         -0.0004659557        4.2851403345        0.0119238864
 O          0.2114339878        5.0284719207        1.2346553576
 C          1.3082928183        3.1132809823       -0.2286432218
 C          1.9257231576        2.5475894472        0.8910162710
 C          2.6915767273        1.4165008864        0.7546085853
 C          2.8364794139        0.8225113634       -0.5068596278
 N          3.5702577128       -0.3844812698       -0.6359442782
 C          4.9432629297       -0.3912320589       -0.4769529660
 C          5.6714846849        0.7810223383       -0.2706077579
 C          7.0418601769        0.7357219187       -0.1146414155
 C          7.7190160190       -0.4790265539       -0.1646929916
 C          7.0180359389       -1.6506401299       -0.3852538767
 C          5.6417353456       -1.6174523029       -0.5461368842
 O          5.0012494331       -2.7984538914       -0.7780604518
 C          3.6503817443       -2.7739884180       -0.9559347637
 C          3.0113250734       -3.9806840032       -1.1968565626
 C          1.6400434117       -4.0178918767       -1.3716802162
 C          0.8992903533       -2.8424707101       -1.2949016280
 C          1.5237807404       -1.6358965743       -1.0478816033
 C          2.9080714379       -1.5730182972       -0.8855221809
 C          2.2367621426        1.4028596076       -1.6329864730
 C          1.4755745298        2.5364807428       -1.4914566677
 C         -1.2884168930        3.0869167580        0.2368384825
 C         -1.4682051450        2.5094252362        1.4973393169
 C         -2.2290651212        1.3744847372        1.6307315907
 C         -2.8138214553        0.7906330579        0.4979762187
 N         -3.5615494837       -0.4077388473        0.6229434644
 C         -4.9289553614       -0.4049758495        0.4184993356
 C         -5.6384962938        0.7675054657        0.1543026963
 C         -7.0033209442        0.7309000796       -0.0452390291
 C         -7.6954584380       -0.4749558112        0.0198808284
 C         -7.0146132739       -1.6457644127        0.2985895924
 C         -5.6435479525       -1.6215586517        0.5017682823
 O         -5.0251284864       -2.8013926180        0.7902127195
 C         -3.6801447110       -2.7870144868        1.0067684284
 C         -3.0634119980       -3.9936421390        1.3001644855
 C         -1.6981667920       -4.0423232163        1.5143857412
 C         -0.9407275316       -2.8781645833        1.4243676111
 C         -1.5428752238       -1.6718131044        1.1270465159
 C         -2.9214568009       -1.5964603031        0.9243513534
 C         -2.6466994800        1.3792839905       -0.7633868650
 C         -1.8838814687        2.5134616403       -0.8909412615
 H          1.7832768757        3.0217239655        1.8483594502
 H          3.1742827623        0.9657806763        1.6094897512
 H          5.1474449149        1.7231839463       -0.2407876879
 H          7.5877134329        1.6522537806        0.0441851671
 H          8.7894311138       -0.5096236354       -0.0399978012
 H          7.5168117752       -2.6049333947       -0.4409500025
 H          3.6109175041       -4.8757430943       -1.2414414063
 H          1.1476614709       -4.9579245281       -1.5615435327
 H         -0.1714559841       -2.8688611129       -1.4221070708
 H          0.9452078296       -0.7286930514       -0.9761908429
 H          2.3809377266        0.9474869994       -2.6018196402
 H          1.0002790470        3.0070048011       -2.3364833032
 H         -1.0052780837        2.9821878487        2.3480648508
 H         -2.3863084750        0.9217516003        2.5987565412
 H         -5.1050635893        1.7039068076        0.1146273358
 H         -7.5337398273        1.6475552562       -0.2493688568
 H         -8.7616146339       -0.4984520897       -0.1379749743
 H         -7.5250543594       -2.5929329178        0.3681789558
 H         -3.6755779453       -4.8797295543        1.3525499056
 H         -1.2232603412       -4.9823238970        1.7442640779
 H          0.1260395587       -2.9137160323        1.5796639897
 H         -0.9502688278       -0.7747265889        1.0450138099
 H         -3.1118114547        0.9233103869       -1.6252379437
 H         -1.7300710812        2.9857649020       -1.8473129956
