72
 energy: -110.132737772021 gnorm: 0.000052513367 xtb: 6.7.1 (edcfbbe)
C            1.35615586521683        0.80914055474140        3.53402054543609
C            1.31145560403379        2.07041268093807        2.96438948010886
C            1.62692061484182        2.24439029093281        1.61806117696775
C            1.49061621063450        3.55074578586003        0.94822928580574
C            1.97768535797354        4.70715818341697        1.54761375970380
C            1.87264529071155        5.93324504310785        0.91645870890677
C            1.27667283602287        6.01957145244881       -0.32996413332640
C            0.78199060039729        4.87835795875611       -0.93655715638463
C            0.87305950928858        3.64363512505084       -0.30969777361152
C            0.32719308639556        2.43045047648443       -0.95979705343541
C            0.94940188097674        1.89535002990694       -2.08392521305866
C            0.55542034811969        0.66131163789907       -2.57010198159406
C           -0.47436886223820       -0.03425062849934       -1.96529823002849
C           -1.16929732123469        0.53749681471554       -0.90094610786806
N           -2.25380019719616       -0.13972592907109       -0.33244125640478
C           -3.21717730654395       -0.83815377540620       -1.03877256236810
C           -3.43698410570954       -0.91461863098768       -2.40715212708468
C           -4.50613456281601       -1.66851264737391       -2.85179390273411
C           -5.35352316264921       -2.32741586169660       -1.96431723181648
C           -5.16452120340005       -2.22547798890906       -0.60117221162831
C           -4.09723379712114       -1.47118369765228       -0.13243966343071
C           -3.63969753334273       -1.13190729547851        1.18470235045791
C           -4.08399403045109       -1.46675015665856        2.45686734064523
C           -3.39516688838793       -0.97910161667581        3.54891269958971
C           -2.26983809560069       -0.17708180119177        3.37819792645964
C           -1.80977769288094        0.16824019086705        2.12161274760035
C           -2.50630016647399       -0.30321854290564        1.01748088854166
C           -0.76086628173919        1.77102881919467       -0.40354714362590
C            2.01863099380133        1.13410732515149        0.88205604503374
C            1.98005717579449       -0.14103588325391        1.42877826997375
N            2.18781867709037       -1.23443746665471        0.56909575195279
C            3.16891875004493       -1.29772693835087       -0.40066971262949
C            4.35956525574523       -0.59124650315930       -0.48794284417974
C            5.19899075972821       -0.87159413345124       -1.54900215583330
C            4.87114016722298       -1.83619345435403       -2.49935434634079
C            3.69378349071524       -2.55193842539868       -2.40932924800154
C            2.83238636652315       -2.28539011644789       -1.35349879017722
C            1.55677807613604       -2.81301061490488       -0.95643581241810
C            0.69252038782625       -3.74542668095008       -1.51539072331120
C           -0.51571757545533       -3.98678519179508       -0.89181575436871
C           -0.85935109730486       -3.32289736731737        0.28318709180952
C           -0.01066519173128       -2.39983812423090        0.86378433100928
C            1.19522556389790       -2.13931379426740        0.23221205850155
C            1.65833223123724       -0.30667541638090        2.77048129479901
H            1.12024533593529        0.68769584680434        4.58100951608403
H            1.00352652777573        2.91957105807097        3.55657566607326
H            2.46338365804385        4.63600357052719        2.51022410813257
H            2.26103391513333        6.82019138029798        1.39481311156356
H            1.19641568185402        6.97378982149019       -0.82913698729372
H            0.30736253050047        4.93945576214006       -1.90551013084007
H            1.77544855034530        2.42346247552294       -2.53825916302969
H            1.07676952758765        0.22162946250141       -3.40749019470613
H           -0.73231235124467       -1.02682661764091       -2.30001474811362
H           -2.80687057656350       -0.38941296270918       -3.10837360907476
H           -4.69188947427808       -1.74372116711374       -3.91318663039473
H           -6.17524127729275       -2.91110795067410       -2.35189467019557
H           -5.83401040435170       -2.71380695829393        0.09099898889666
H           -4.94917166367024       -2.10017806064209        2.58330876888111
H           -3.72410890077181       -1.22545643953415        4.54754279711804
H           -1.73786282870499        0.18250225163791        4.24678871558333
H           -0.92142779009129        0.76909651512609        2.01501830331847
H           -1.29035535861863        2.22582809707597        0.41958255494092
H            2.32131174849350        1.24431048613141       -0.14599691607806
H            4.62381011885715        0.14944226207796        0.25232985482466
H            6.13127454570736       -0.33403738353676       -1.64196336420216
H            5.55456050505749       -2.02756920779758       -3.31344642642567
H            3.44587390051860       -3.30649462256232       -3.14082958748444
H            0.95999825233932       -4.26049757702262       -2.42610349627990
H           -1.20850060423798       -4.69730411964620       -1.31788453300367
H           -1.81155294434796       -3.52824043014474        0.74964459474593
H           -0.29124984547545       -1.88841351341106        1.77094365754874
H            1.64458919334460       -1.29364566483775        3.20653320170686
