72
 energy: -110.029049029902 gnorm: 0.000071668698 xtb: 6.7.1 (edcfbbe)
C            2.00120960632701        1.11484195992150        3.35464686129861
C            2.71285638611864        1.81003741615647        2.41585444317106
C            2.79334147194381        1.35107967156977        1.05825017937529
C            3.33260760846201        2.12011432398730        0.00627096142030
C            4.25954555410620        3.18449300673342        0.23413862252009
C            5.11882321111921        3.57970735391853       -0.73977285035863
C            5.07463837882248        2.99421335139620       -2.03460164736516
C            4.08141248779286        2.09494984933675       -2.34183528985530
C            3.12164295155165        1.73367197270723       -1.39874014268773
C            1.91954664959902        1.03522172965183       -1.77320909217456
C            1.94601585267541       -0.08080343462566       -2.63305695241378
C            0.84780506453301       -0.90540380882153       -2.72249470938675
C           -0.32534564145324       -0.61317663547277       -2.03710215054636
C           -0.42719377190812        0.58062180492020       -1.31236005683970
N           -1.65055265013001        0.93284587005883       -0.72768633929132
C           -2.89160530455029        0.69895894059819       -1.29641612040933
C           -3.22171796113396        0.24353797917575       -2.56624551671496
C           -4.56044094991834        0.12265239906488       -2.88751282791668
C           -5.56200780990272        0.45948117182618       -1.98102208914491
C           -5.24339716725931        0.96159102809264       -0.73515749024858
C           -3.90482407133977        1.09365183190921       -0.39435290951232
C           -3.23816754710513        1.61498321730561        0.76390803467110
C           -3.70608582469160        2.14663951356501        1.95691690630699
C           -2.78983770765698        2.57168365784144        2.89841841304399
C           -1.42434825037456        2.45786889779076        2.65580983984939
C           -0.93744813694572        1.92762374004943        1.47557299471381
C           -1.84937595050703        1.50900410127664        0.51550590082977
C            0.69124692253304        1.38265619807635       -1.17494627337519
C            2.20333769073849        0.07747272076487        0.81011305037143
C            1.44591501362669       -0.58509360008956        1.74525349182342
N            0.78207353194884       -1.76115919051044        1.34700892367042
C            1.31415600228890       -2.69453978191983        0.47840761283455
C            2.64424829091914       -2.96110690080075        0.18249629506729
C            2.91597588354763       -3.97692598109625       -0.71350477816495
C            1.89507765079527       -4.72219548515358       -1.29904361703077
C            0.57096865819440       -4.47954108936086       -0.98881515912090
C            0.27462063867343       -3.46334583184835       -0.09182409116187
C           -0.95260241517663       -2.94933303283910        0.45090977264619
C           -2.28835516992723       -3.25764062411851        0.23734884744932
C           -3.25168547929162       -2.53472611914143        0.91435139410337
C           -2.89174919044572       -1.52789447344510        1.80480722522839
C           -1.56744274390279       -1.20133632836908        2.03094601202541
C           -0.59532406937214       -1.90802055100993        1.33896611272968
C            1.33002751527830       -0.07588105109821        3.04682460179016
H            1.94232701207217        1.49486052830941        4.36459849461350
H            3.17426450863167        2.74452566797447        2.69123965485086
H            4.33472186721505        3.62124397137308        1.21776467112932
H            5.85512752185521        4.34382345245616       -0.53855526785497
H            5.77429031508854        3.31916034746443       -2.78865849823579
H            3.96956303915331        1.74594425915751       -3.35910623664523
H            2.86481006844869       -0.34321992125013       -3.13523416065756
H            0.90311957453939       -1.81164311992392       -3.30759946559899
H           -1.14815330311629       -1.30922795930539       -2.04822363789194
H           -2.46316503574447        0.01077996463647       -3.29729503261492
H           -4.83500642782125       -0.23436452376159       -3.86919809438396
H           -6.59673685653525        0.34463498762022       -2.26760444204803
H           -6.01551065336454        1.25614899212315       -0.04048171919735
H           -4.76738449223308        2.22320981267997        2.14019334943847
H           -3.13110664635762        2.99206205777389        3.83273974257003
H           -0.72112964806590        2.78611980673518        3.40715578455819
H            0.12426926963977        1.83179856113180        1.33338468032421
H            0.63218008777935        2.31425600421913       -0.63565990200028
H            2.36197576150629       -0.40121628389126       -0.13972248378327
H            3.44256950761969       -2.40000824017243        0.64439179718014
H            3.94283432420095       -4.20058860887638       -0.96235277931288
H            2.14785253705648       -5.50674112911631       -1.99684946209682
H           -0.21922859904460       -5.06858072918123       -1.42978047162359
H           -2.56470618655411       -4.04355948763738       -0.44973906493985
H           -4.29731768802768       -2.75085338624002        0.75418613765346
H           -3.66262484962687       -0.98192955740375        2.32732082632428
H           -1.30885433365112       -0.41009575563598        2.71548614194436
H            0.78703646133007       -0.61749701759610        3.80351916732241
