  72
       -110.02513045
 C          2.0763770990        1.4509841061        3.2219823872
 C          2.9399905321        1.7728091885        2.2101873787
 C          2.9758508174        1.0128816770        0.9965659677
 C          3.7303600358        1.3911089950       -0.1396867033
 C          4.8567265018        2.2567323096       -0.0439518350
 C          5.8221232496        2.2644152427       -1.0025026509
 C          5.7084967654        1.4424881147       -2.1536700594
 C          4.5679486349        0.7066842857       -2.3537890730
 C          3.5092929598        0.7510922623       -1.4430508046
 C          2.2166575921        0.2244704253       -1.7790966103
 C          2.0661132282       -1.0351848888       -2.4000499483
 C          0.8391188991       -1.6540589053       -2.4108332691
 C         -0.2889082664       -1.0219546073       -1.8955066569
 C         -0.1955875638        0.3005206979       -1.4412126828
 N         -1.3602848764        0.9790444523       -1.0559746284
 C         -2.5912167769        0.8375035337       -1.6744767194
 C         -2.9325706435        0.1736990690       -2.8460336265
 C         -4.2524853650        0.2094175843       -3.2545789781
 C         -5.2212823023        0.9012534002       -2.5329582125
 C         -4.8808993844        1.6089970922       -1.3970562368
 C         -3.5604794052        1.5884662094       -0.9722451519
 C         -2.8695505419        2.2385683075        0.1038782147
 C         -3.2919432843        3.1003611587        1.1050335012
 C         -2.3621465449        3.5701265724        2.0119492688
 C         -1.0305783824        3.1758551134        1.9255291641
 C         -0.5898201385        2.3143542436        0.9380716760
 C         -1.5129116844        1.8460881732        0.0118088439
 C          1.0454405621        0.9041084058       -1.3713937900
 C          2.1359526518       -0.1360520588        0.9720086800
 C          1.2275597117       -0.4149511427        1.9671469629
 N          0.3299286785       -1.4811854486        1.7653058556
 C          0.6519326760       -2.6554723564        1.1133319674
 C          1.8934379663       -3.2529945265        0.9378713039
 C          1.9428763352       -4.4532894284        0.2559205662
 C          0.7883100771       -5.0598998402       -0.2336803745
 C         -0.4530867938       -4.4866841572       -0.0361579544
 C         -0.5262087114       -3.2803150557        0.6447583211
 C         -1.6163469932       -2.4250082390        1.0256049161
 C         -2.9855799548       -2.4810426172        0.8113028927
 C         -3.7758474763       -1.4600654636        1.3039398065
 C         -3.2128546307       -0.4033484435        2.0120227698
 C         -1.8497497552       -0.3229100590        2.2305557356
 C         -1.0472439287       -1.3337706454        1.7229059890
 C          1.1881130744        0.3729753225        3.1242157845
 H          2.0660623537        2.0498628955        4.1215492702
 H          3.5681355692        2.6427252215        2.3142992463
 H          4.9895234658        2.8588251118        0.8415637898
 H          6.6958733684        2.8890296329       -0.8892604490
 H          6.4925139171        1.4537409608       -2.8948997708
 H          4.4321792420        0.1693285747       -3.2820681314
 H          2.9395208958       -1.5548472876       -2.7634790168
 H          0.7469392003       -2.6589155977       -2.7961169946
 H         -1.2254154744       -1.5509331375       -1.8315282731
 H         -2.1921170000       -0.3377980409       -3.4410575085
 H         -4.5360215699       -0.3052441674       -4.1608245657
 H         -6.2433440281        0.9005840688       -2.8818536266
 H         -5.6210219701        2.1763796092       -0.8532886193
 H         -4.3288115617        3.3944524583        1.1692941576
 H         -2.6676286610        4.2451498313        2.7975014763
 H         -0.3181830926        3.5451164819        2.6486241519
 H          0.4421432250        2.0127805362        0.9177342088
 H          1.1396293753        1.9274916777       -1.0461572956
 H          2.2182580437       -0.8327850194        0.1573694620
 H          2.7917539756       -2.8016193367        1.3309263002
 H          2.8976281057       -4.9342295417        0.1028440559
 H          0.8685391734       -5.9968215817       -0.7647346670
 H         -1.3499384711       -4.9655850383       -0.3996872146
 H         -3.4203508782       -3.3054734560        0.2660783929
 H         -4.8427866316       -1.4796736402        1.1402036795
 H         -3.8511110378        0.3786955193        2.3944964844
 H         -1.4327554966        0.5124803200        2.7683069349
 H          0.5296557734        0.1229158304        3.9394309603
