72
 energy: -110.029099265594 gnorm: 0.000057988548 xtb: 6.7.1 (edcfbbe)
C            2.08025210846566        1.43886036873349        3.22767300885482
C            2.95088366310175        1.75832707551060        2.22254874959999
C            2.98316928931644        1.00380757795541        1.00176337159145
C            3.71730036066033        1.39875037032263       -0.13613613914629
C            4.82800461638661        2.29561542466378       -0.05311158852460
C            5.79708700497876        2.29692814712071       -1.00377185556969
C            5.70147662635291        1.45432109946895       -2.14458902744977
C            4.56459155190233        0.70883795849275       -2.34585388863216
C            3.50471196265776        0.75227468881913       -1.44190954400579
C            2.21087836093421        0.21647150452816       -1.77507029317063
C            2.06632451189263       -1.05072675595475       -2.37448204446668
C            0.83611691978196       -1.66686425731290       -2.38985252204692
C           -0.29213057255885       -1.02635922509066       -1.89113754810231
C           -0.20023489592441        0.29877921974758       -1.44810936522252
N           -1.36154055009059        0.98162256240157       -1.06384059977287
C           -2.59647756571774        0.84076502537210       -1.67547356067568
C           -2.94678261654335        0.16956565971589       -2.83985788543157
C           -4.26833920191028        0.20875760010017       -3.24235766472160
C           -5.23038626223029        0.91111349336198       -2.52170397682248
C           -4.88118574945188        1.62521641685978       -1.39303745580514
C           -3.55861669305228        1.60113258125798       -0.97402410401865
C           -2.86060721017033        2.25410588104177        0.09546334285295
C           -3.27574042818203        3.12270267830374        1.09436307372209
C           -2.34146053008837        3.59140892956352        1.99650997861079
C           -1.01241977908511        3.18882578573624        1.90866329532594
C           -0.57904184607841        2.32110529967560        0.92352148686780
C           -1.50655391019148        1.85494976159178        0.00102574937969
C            1.04269336465984        0.90233172859142       -1.38303701961812
C            2.14415201550300       -0.14834918265125        0.97622300286434
C            1.22943077155608       -0.42399537422977        1.96433528858077
N            0.33227034944449       -1.48963607861501        1.76268534268108
C            0.65538314154576       -2.66656930079535        1.11471416416101
C            1.89648101539693       -3.26614274344188        0.94582999964103
C            1.94687932251805       -4.46942428247858        0.26906104332935
C            0.79341181154980       -5.07652183188636       -0.22225044106963
C           -0.44768186935404       -4.50096818650302       -0.03124506061190
C           -0.52169585326682       -3.29167363092215        0.64477609472407
C           -1.61233354957720       -2.43431029801007        1.01910187011351
C           -2.98123252113491       -2.49098032798188        0.80108043278589
C           -3.77242516369153       -1.46773600011462        1.28652299443698
C           -3.21087695094163       -0.40750147505772        1.99072723216222
C           -1.84857162385588       -0.32670110013019        2.21317282956114
C           -1.04516779590191       -1.34078103925692        1.71385031101485
C            1.18598289441451        0.36572204539948        3.12245420457370
H            2.06930038659185        2.03412416249415        4.12959944501662
H            3.58649120467833        2.62171960068060        2.33363268119469
H            4.94020636573414        2.92214993637047        0.81786066359137
H            6.66020928366268        2.93785881175965       -0.90015612500965
H            6.48888971234799        1.46644097573593       -2.88183777940274
H            4.43606936945187        0.16690878385247       -3.27261599286785
H            2.94215297175330       -1.57763079385132       -2.72147280318876
H            0.74551155293595       -2.67642400465760       -2.76290202498491
H           -1.23075380736478       -1.55217393786895       -1.82958558598033
H           -2.21227963799528       -0.35066128336539       -3.43469934159896
H           -4.55886798415228       -0.31222884688803       -4.14277604403517
H           -6.25418285144811        0.91151372879332       -2.86496138851354
H           -5.61580909134361        2.19987059967805       -0.84941769378119
H           -4.31096118264796        3.42238829926324        1.15992706548231
H           -2.64086666859561        4.27169613057342        2.77993477432425
H           -0.29623473412106        3.55648989084138        2.62897078754100
H            0.45101490836364        2.01236214231975        0.90349164110652
H            1.13658518108450        1.92744150262755       -1.06317937334613
H            2.22903107717130       -0.84434839410436        0.16141664942711
H            2.79423379208119       -2.81416905397624        1.33967993592942
H            2.90164684172186       -4.95213129563189        0.12145957434056
H            0.87435380875172       -6.01590495541122       -0.74891640390330
H           -1.34401232432091       -4.98044356920571       -0.39534137563724
H           -3.41447475991705       -3.31790812141305        0.25837728381874
H           -4.83896206024058       -1.48767416564327        1.12010467780881
H           -3.84991903366748        0.37699603998293        2.36685113835140
H           -1.43297312404106        0.51223323279935        2.74664088262069
H            0.52251592461268        0.11689109847064        3.93395372035301
