112
 energy: -152.094834353406 gnorm: 0.000065256646 xtb: 6.7.1 (edcfbbe)
C           -6.20421877740668       -5.08479935144057        2.78183794044085
C           -6.58767028264653       -4.75285016544272        1.33281202707636
C           -8.10013349753800       -4.94188648244732        1.18705547064856
C           -5.89213351370884       -5.72908149175984        0.37349759946174
C           -6.14219081109307       -3.33419157927300        1.00913060024453
C           -4.78057312456045       -3.01596824026810        1.09612950848321
C           -4.28350344538984       -1.75967383615015        0.81322573823637
C           -5.17892605297357       -0.77892140820612        0.41684635852564
C           -6.55798668878197       -1.06510700281033        0.35009199384411
C           -7.03096870345515       -2.33766392666257        0.64072837845148
C           -7.21203960151019        0.15813644456637       -0.02711007920133
C           -8.54019142170312        0.48339155321221       -0.26905145870030
C           -8.87296958660751        1.77119999885751       -0.65550015877792
C          -10.30618053254130        2.20190501148891       -0.93124359594347
C          -11.31413677134801        1.07237007859545       -0.70162578578674
C          -10.42304638429299        2.65520888414024       -2.39337034047473
C          -10.67252035772759        3.36271709285692        0.00434256190076
C           -7.84356898709171        2.70882260322809       -0.81186493723290
C           -6.51605492893884        2.41284737044370       -0.57766626782739
C           -6.19940265709882        1.12972197190420       -0.16009245052340
N           -4.96938430897535        0.55405223850460        0.10968645332857
C           -3.73992248535703        1.20952058056769        0.08534163938708
C           -3.59318032020972        2.45019764234004        0.70729153315403
C           -2.38141575380877        3.10324366238627        0.66468654962983
C           -1.28041139606220        2.52723786700820        0.03043079188940
C           -0.01274508077377        3.29384133672840       -0.01150566842349
O           -0.01224222731424        4.51136077458116       -0.01105967989198
C            1.25427433542256        2.52621476750463       -0.05286024253286
C            2.35837376337316        3.10499639230606       -0.67927679851571
C            3.57059023693213        2.45265229269068       -0.71798736045738
C            3.71456143673802        1.20943620342401       -0.10036661818858
N            4.94557180840206        0.55669553249695       -0.11770497803532
C            6.17096819664631        1.13473853049605        0.16833860801179
C            6.47841723899004        2.41698342343781        0.59513721562565
C            7.80214610743095        2.71630617065846        0.84641003558376
C            8.83626071896700        1.78269514445790        0.69904300838727
C           10.26468792397846        2.21716005311276        0.99292565781943
C           10.64094661539300        3.37328360859385        0.05546474535761
C           10.36149000392897        2.67907140794668        2.45382384366075
C           11.27762511405415        1.08810284785218        0.78389769998291
C            8.51225545760560        0.49568343780434        0.30199679578423
C            7.18844703021156        0.16756635407280        0.04219201033163
C            6.54279584734522       -1.05615413541846       -0.34907610718970
C            7.01654866306279       -2.32389497975619       -0.64405449448313
C            6.13392568885843       -3.32474120476529       -1.02918958535023
C            6.68032302942565       -4.71063241521416       -1.34258308359982
C            7.67655398751819       -4.60439891631855       -2.50603568062446
C            5.58826209968114       -5.70635089319289       -1.74270629322635
C            7.39196111897697       -5.26102737874353       -0.09836845116671
C            4.77546677756489       -3.01305565826868       -1.12616890232250
C            4.27550733441426       -1.75543621590961       -0.83844318961610
C            5.16192780778524       -0.77445676807689       -0.42897582542456
C            2.61938489607400        0.63621057519418        0.54672926112965
C            1.40219956307204        1.28520671606512        0.56557279439804
C           -1.43147387468786        1.28949837852330       -0.59367341017137
C           -2.64850398854372        0.64030954922862       -0.57162995383662
H           -6.53662017949569       -6.08897013388443        3.03695109408067
H           -5.12913090362026       -5.03517813497632        2.93000745433084
H           -6.67492445720654       -4.38099583151261        3.46523366961258
H           -8.64326166994622       -4.29517078078276        1.87226766134948
H           -8.36076718746570       -5.97224440909610        1.42102317425973
H           -8.42367388574071       -4.73678830436391        0.16918531463906
H           -4.81161060718830       -5.68701962735875        0.47809844901551
H           -6.14444462148100       -5.48634529603077       -0.65676560172520
H           -6.21400553531629       -6.74834965001376        0.57692816373235
H           -4.07799009948688       -3.77648131868551        1.40121152151980
H           -3.22852159062775       -1.55314605385477        0.91402596111677
H           -8.09065928509484       -2.51995955399352        0.57762720846071
H           -9.28754478669445       -0.28391426581965       -0.15505489063361
H          -11.12296414368562        0.23516206728581       -1.36891736508884
H          -11.28252163674932        0.72369108814256        0.32807774092908
H          -12.31950355847025        1.43758442431656       -0.90199140172431
H          -10.14201965204941        1.84369653168517       -3.06154898204770
H           -9.77667481562948        3.50385247620330       -2.59888752389506
H          -11.44773791765078        2.94635632871570       -2.61508559645140
H          -11.70262295162438        3.66967650561499       -0.16470295168005
H          -10.03085103126102        4.22374769450014       -0.15996706764057
H          -10.56999020215268        3.05454578465798        1.04285641964431
H           -8.08446087006302        3.71027769773659       -1.13413113000203
H           -5.75326918932408        3.16087366276204       -0.73260080995554
H           -4.43085837658825        2.88434081006501        1.23149081063055
H           -2.25793089990419        4.06701422991582        1.13566288309407
H            2.23705801520163        4.07080658213740       -1.14663337777759
H            4.41104177328619        2.88953691939453       -1.23545270607233
H            5.71140293695583        3.16185041777239        0.74419601297336
H            8.03585403152844        3.71732121681229        1.17524528173181
H           11.66732638373883        3.68513201988144        0.23765156774052
H           10.55474399338020        3.05813743770542       -0.98245136390352
H            9.99344615247840        4.23270208030167        0.20486706364847
H           11.38335479975497        2.97040920295752        2.68796132894932
H            9.71367158303206        3.52979107115427        2.64553761799976
H           10.07030430581337        1.87188926481516        3.12288716284360
H           11.26357232061813        0.73556505836836       -0.24487927447802
H           11.07628762805734        0.25323193586613        1.45119846839321
H           12.27913867267897        1.45532488752156        0.99930742022802
H            9.26353589815885       -0.26861228083595        0.19354999257225
H            8.07661341094428       -2.51309639150880       -0.57499358208791
H            8.51399147324212       -3.96017425239636       -2.25335390264569
H            7.18457966992028       -4.19368469829644       -3.38538132793849
H            8.06749090047727       -5.58838960997099       -2.75678038127798
H            4.86267716289104       -5.83482569108025       -0.94276822117152
H            5.07347362518647       -5.38290319056595       -2.64447690164466
H            6.03974931662172       -6.67576267816411       -1.94470924693389
H            7.77948052509659       -6.25805922237568       -0.29759403817291
H            6.69645516612935       -5.32121324600549        0.73627937259152
H            8.22273630008790       -4.62638012739585        0.19682990502699
H            4.07203621929841       -3.76611376593908       -1.44066210437283
H            3.22072346216657       -1.55188085056551       -0.94750010594864
H            2.74053947189876       -0.30774851725509        1.05655060327647
H            0.57135307206375        0.84581157715222        1.09789324701979
H           -0.60326137415116        0.85283653586473       -1.13233151728229
H           -2.77226502017521       -0.30093472378266       -1.08583002692478
