112
 energy: -152.093935687046 gnorm: 0.000071079436 xtb: 6.7.1 (edcfbbe)
C           -9.29350999308829       -3.52537340098955       -2.68475907920265
C           -8.72280560100495       -3.49833636904311       -1.25979420501394
C           -8.05285626681992       -4.84254721376511       -0.94171033912746
C           -9.88838291551283       -3.30773245062744       -0.28522299430860
C           -7.68795124387193       -2.38722051139254       -1.15775771870839
C           -6.55920501144753       -2.43563837473851       -1.98641393562740
C           -5.56823288573453       -1.47508593530966       -1.96248416785830
C           -5.70215013284644       -0.42440985645691       -1.06875007952443
C           -6.84070759491778       -0.33823504450610       -0.24143709429544
C           -7.82245185693577       -1.31877648964645       -0.28639441078408
C           -6.70563542964507        0.87684957469879        0.51528428066890
C           -7.48034117750613        1.47542742843644        1.49572123876066
C           -7.06578396194709        2.66493239030412        2.08064338369843
C           -7.93586770657235        3.30396294711983        3.15399873783633
C           -8.08485043171683        2.32384395703737        4.32643325439361
C           -9.31621406103782        3.61603730651986        2.55876501493087
C           -7.34912197670939        4.60894824408829        3.69906106972675
C           -5.85350925821108        3.22372500849967        1.66758514339144
C           -5.06081148212310        2.64806921960101        0.69116720891863
C           -5.49785839826881        1.47614632043386        0.09836913714629
N           -4.89540016017575        0.67961436654592       -0.85959064641580
C           -3.68208716722553        0.95160130284025       -1.49204071728736
C           -2.69350683425576       -0.02843427185016       -1.57727262989329
C           -1.47865087596541        0.25945603889922       -2.16524084703909
C           -1.23173742696138        1.52680194975093       -2.68938443229386
C            0.05887020939371        1.87920130789740       -3.33337055365521
O            0.10133816535569        2.57424156875807       -4.33096704938715
C            1.29293299048080        1.37565803607080       -2.68687567379783
C            1.35162374453147        1.06363264999619       -1.32836331509429
C            2.53986624157526        0.66436405050819       -0.75436324877901
C            3.69843088214211        0.56527268361383       -1.52579780547986
N            4.90066638451455        0.17823909657384       -0.93822729570177
C            5.08206346784163       -0.89124572310161       -0.07869709603973
C            4.19418185874532       -1.87006085170135        0.33261149551807
C            4.65746728709248       -2.86185115909697        1.17866684667540
C            5.98128458713851       -2.91675879912295        1.62200960126070
C            6.48560576250646       -4.00543199800325        2.55895276534991
C            5.39398948956138       -5.00193505509413        2.95840045174609
C            7.60944905964296       -4.78572013921911        1.86225628317783
C            7.02385428064889       -3.35164132110541        3.83969502323820
C            6.86871471654328       -1.94414188227102        1.17951331875666
C            6.43138947290307       -0.93922971935860        0.33234680397432
C            7.09179076719220        0.16979887984869       -0.30164527117493
C            8.39326570636951        0.65012017387728       -0.24755444782518
C            8.73494703155640        1.79123436535271       -0.95487727910776
C           10.13915276527521        2.37734393087705       -0.94032910818326
C           10.68308980434367        2.41965489902713       -2.37525056828902
C           11.11067175000941        1.55551913393605       -0.08870969794559
C           10.08456396281153        3.79863144975283       -0.36217991040173
C            7.74019087622146        2.43862982237631       -1.69914577840422
C            6.43928215122997        1.98290864789069       -1.77069834199761
C            6.11616541376945        0.82671972123475       -1.07846194624920
C            3.64448962440577        0.87687334362915       -2.88526245065874
C            2.45745275524240        1.28602969170632       -3.45111273894210
C           -2.23886219565154        2.48885709364680       -2.64257686439536
C           -3.44724343880861        2.21245674395394       -2.04003878058946
H           -8.51865869220915       -3.72602696176546       -3.41931728529941
H          -10.05244485892095       -4.30039611713538       -2.77030828028451
H           -9.74964817294565       -2.56703594624227       -2.92448355054964
H           -7.25550980454617       -5.06563066660041       -1.64503623225344
H           -8.78404597176841       -5.64684163341401       -0.99075028373923
H           -7.62814428940808       -4.82248592678160        0.05992215792296
H          -10.42305131450057       -2.38321278705289       -0.49053578955430
H           -9.53937233290028       -3.29817778368230        0.74483281436767
H          -10.59048761489052       -4.13202962281310       -0.39431547745745
H           -6.44942691611775       -3.25231352206095       -2.68355814504885
H           -4.72523538934223       -1.53999835723083       -2.63402433729882
H           -8.67850814770472       -1.22054264540566        0.35997953536719
H           -8.40012652234837        0.99827096622984        1.79692932309381
H           -8.56208816062421        1.39975375521705        4.01262044385487
H           -7.10757275572471        2.07949203678902        4.73783667609075
H           -8.68963506478142        2.76914232941568        5.11375400872260
H           -9.81095737093926        2.71389772295782        2.21016446757157
H           -9.21616010328386        4.29668268305939        1.71576306130500
H           -9.95108143274826        4.08492846989308        3.30778464109586
H           -8.01805291110432        5.01844892171635        4.45355769778987
H           -7.24051013374657        5.34974077882558        2.91023821177245
H           -6.38182101782329        4.43933248325342        4.16641324714854
H           -5.50070502659586        4.13672904511899        2.11769373940226
H           -4.12092671044882        3.10251253546984        0.41528097953577
H           -2.87723292021169       -1.00585856913502       -1.15703143074208
H           -0.71958010612592       -0.50651479523247       -2.23116687076844
H            0.47226033889756        1.17051462273863       -0.71065737322529
H            2.58968543902636        0.45553495536495        0.30373111077451
H            3.16764502500264       -1.87611616755154       -0.00230959925589
H            3.95342850163364       -3.61458409534811        1.49244871530930
H            5.81407150902324       -5.74758064519760        3.63065547707908
H            4.57906742359157       -4.50357304650093        3.47839568979790
H            4.99903881040334       -5.52094475622887        2.08807093271008
H            7.97151891916203       -5.58136652309511        2.51014641754046
H            7.24146260240576       -5.23136747203825        0.94033824422819
H            8.44764010006976       -4.13984310238693        1.61650599182754
H            6.23667437545578       -2.78260810623934        4.33016087258136
H            7.84726622460103       -2.67651243801612        3.62437168051539
H            7.37996552758367       -4.11397990163694        4.52956941379932
H            7.90482160229330       -1.95803135744579        1.48047607000717
H            9.11238503617622        0.12302312763480        0.35687609045766
H           11.69471990740522        2.82022873568936       -2.38103446574551
H           10.06705753743588        3.04463539481905       -3.01558890903331
H           10.70608659810373        1.41716722417847       -2.79768616439878
H           12.09733765530811        2.01346169118133       -0.12091269209232
H           10.79004164584450        1.52379466446407        0.95005348120369
H           11.19955934595940        0.53976137844999       -0.46711434183669
H            9.67621441549635        3.77826014940798        0.64621360483309
H            9.46136206486524        4.45041540899509       -0.96796771333709
H           11.08451447644432        4.22562956134983       -0.32152037205650
H            7.98626284713643        3.33901448414644       -2.24093000713432
H            5.69926029334913        2.52726586864054       -2.33761560830419
H            4.53490208786883        0.78188837534539       -3.48797584904012
H            2.40329785562587        1.53599563005916       -4.50024131748353
H           -2.05180215312914        3.45765100819059       -3.08107030071349
H           -4.22581199575828        2.95940515916464       -2.00635094066644
