  112
       -152.00905842
 C         -6.0441151297       -5.5756076227        1.3976607625
 C         -6.7949498912       -4.4520133594        2.1270437811
 C         -6.5296679835       -4.5441873209        3.6369631311
 C         -8.2952820187       -4.6551107263        1.8971889594
 C         -6.2996062281       -3.1100275356        1.6117535698
 C         -4.9464625083       -2.7801549455        1.7737751276
 C         -4.4078882567       -1.5887824761        1.3332170985
 C         -5.2503636613       -0.6895850048        0.6943566326
 C         -6.6229183689       -0.9891771389        0.5357210493
 C         -7.1375320471       -2.1931187548        0.9902566017
 C         -7.2121365689        0.1504266842       -0.1158824266
 C         -8.4978539105        0.4388752365       -0.5454756387
 C         -8.7556507164        1.6437184160       -1.1869570661
 C        -10.1404033654        2.0246132244       -1.6862034729
 C        -10.0944623795        2.1826694736       -3.2129335164
 C        -10.5640447208        3.3511191987       -1.0389523956
 C        -11.2000005709        0.9728551338       -1.3462812670
 C         -7.6923728042        2.5336699525       -1.3974085962
 C         -6.4043077187        2.2747588903       -0.9773127088
 C         -6.1645156599        1.0790223077       -0.3136684065
 N         -4.9889479560        0.5620970353        0.1824716443
 C         -3.7456503004        1.2030410173        0.1748428702
 C         -3.6205474363        2.5233173300        0.6271793051
 C         -2.3987764053        3.1419937585        0.6215426197
 C         -1.2374374791        2.4622983791        0.1934906567
 C          0.0189075664        3.1863486730        0.1912843251
 O          0.0165902399        4.4481543852        0.2090911579
 C          1.2835469379        2.4728536615        0.1553645853
 C          2.4226754429        3.1519890348       -0.3259040051
 C          3.6404149855        2.5281904854       -0.3980642284
 C          3.7831153699        1.2066631942        0.0442474888
 N          5.0115359174        0.5460013726       -0.0580956510
 C          6.2371070448        1.0388746359        0.3297692359
 C          6.5632110890        2.2326735806        0.9593487779
 C          7.8903237798        2.4669566956        1.2542588518
 C          8.9107071588        1.5532929716        0.9528781324
 C         10.3448860664        1.9095105389        1.3108280533
 C         10.7336748087        3.2127814147        0.5978768616
 C         10.4502449273        2.0969011351        2.8312825469
 C         11.3433891665        0.8259229609        0.8941137935
 C          8.5685151612        0.3495552482        0.3502808115
 C          7.2426799966        0.0865365925        0.0443328300
 C          6.5744039312       -1.0416090446       -0.5481837041
 C          7.0208112337       -2.2571092931       -1.0429281504
 C          6.1126162444       -3.1524587607       -1.5926963841
 C          6.5302416439       -4.5037193012       -2.1509783168
 C          6.1734116610       -4.5624317351       -3.6434090515
 C          5.7852232816       -5.6127879108       -1.3940358054
 C          8.0330750318       -4.7607939208       -2.0109652319
 C          4.7596499630       -2.7884269529       -1.6459894509
 C          4.2877282559       -1.5866889587       -1.1602730679
 C          5.2008572196       -0.7108835739       -0.5896805242
 C          2.6796988754        0.5506511881        0.6028862391
 C          1.4588022927        1.1746298342        0.6706562790
 C         -1.3897136820        1.1589761889       -0.3184974247
 C         -2.6141619603        0.5385645048       -0.3129703766
 H         -6.3952943754       -6.5456076159        1.7428255615
 H         -6.2158689696       -5.5074026879        0.3253217796
 H         -4.9738499422       -5.5181430360        1.5750842078
 H         -5.4684835836       -4.4823531648        3.8603228317
 H         -6.9036329827       -5.4893654537        4.0244598627
 H         -7.0351777534       -3.7330959174        4.1570798664
 H         -8.5368247619       -4.6307288600        0.8370318730
 H         -8.8763183940       -3.8951301811        2.4146100412
 H         -8.5924970293       -5.6268314873        2.2860945352
 H         -4.2879509406       -3.4783589494        2.2670022613
 H         -3.3648142628       -1.3615297509        1.4919131289
 H         -8.1874632738       -2.3914095234        0.8542144517
 H         -9.2759265626       -0.2866614005       -0.3765874739
 H         -9.4014513338        2.9648791493       -3.5098495239
 H         -9.7769203740        1.2517175542       -3.6782774927
 H        -11.0814035399        2.4394237633       -3.5921566297
 H         -9.8895896770        4.1591456597       -1.3068410403
 H        -10.5695247526        3.2556148736        0.0446606759
 H        -11.5652988173        3.6228638911       -1.3668089092
 H        -12.1698171469        1.3056935490       -1.7105980219
 H        -11.2766952037        0.8290861780       -0.2708388677
 H        -10.9748665177        0.0199946762       -1.8198716449
 H         -7.8754561386        3.4625112077       -1.9149191675
 H         -5.6071981244        2.9751698564       -1.1736605060
 H         -4.4921302974        3.0346800312        1.0093632800
 H         -2.2871001530        4.1566891923        0.9719109392
 H          2.2962279120        4.1667375973       -0.6708857984
 H          4.4911478494        3.0355716248       -0.8291024985
 H          5.8032819742        2.9518271819        1.2236819408
 H          8.1405461967        3.3958706872        1.7428211955
 H         11.7661586274        3.4692541526        0.8255214164
 H         10.6366246599        3.0950337388       -0.4794270684
 H         10.1026555278        4.0406258827        0.9081326662
 H         11.4750951979        2.3344055813        3.1085588066
 H          9.8087508556        2.9022365474        3.1776441325
 H         10.1565195087        1.1830594683        3.3436810210
 H         11.3172478623        0.6623849505       -0.1808352601
 H         11.1399740745       -0.1126615784        1.4044700297
 H         12.3503627825        1.1401115521        1.1612218278
 H          9.3115049884       -0.3940881855        0.1152115160
 H          8.0734684267       -2.4804984633       -0.9950851084
 H          6.6799635113       -3.7643350313       -4.1822274264
 H          5.1041648030       -4.4537781514       -3.8014925897
 H          6.4846013909       -5.5157931169       -4.0651597729
 H          6.0159512209       -5.5629356750       -0.3317667428
 H          4.7091902009       -5.5224598634       -1.5128878776
 H          6.0874506120       -6.5888091534       -1.7675959435
 H          8.2714935685       -5.7422443591       -2.4159123096
 H          8.3372769510       -4.7460627419       -0.9669093219
 H          8.6098373063       -4.0221901328       -2.5627694016
 H          4.0467709588       -3.4669718679       -2.0884052273
 H          3.2413043669       -1.3335656267       -1.2352840307
 H          2.8095490993       -0.4396621873        1.0159005462
 H          0.6359545042        0.6761047631        1.1603800856
 H         -0.5447164068        0.6540377318       -0.7615099285
 H         -2.7241197487       -0.4539850028       -0.7264919111
