112
 energy: -152.014002359992 gnorm: 0.000083425879 xtb: 6.7.1 (edcfbbe)
C           -6.08042700209684       -5.57307453644926        1.35957818342188
C           -6.83691244266702       -4.45077462267588        2.08489277893142
C           -6.58281565428733       -4.54428398476429        3.59633057981413
C           -8.33483651701417       -4.65428575795926        1.84128119589830
C           -6.33857340746018       -3.10635132737008        1.57801977167162
C           -4.98150633416979       -2.78767363454309        1.72733932668682
C           -4.43922003677335       -1.59615920952941        1.29211311305307
C           -5.28319476875557       -0.68375893433966        0.67442432945093
C           -6.65998161319953       -0.96946890490233        0.53457547169502
C           -7.17791521784482       -2.17521668031134        0.98106657928109
C           -7.25008157868141        0.18425799825509       -0.09095901321461
C           -8.54175734821598        0.48958483526085       -0.49039071301401
C           -8.80292929263360        1.70778323668838       -1.10369947081360
C          -10.19538722032319        2.11040438466845       -1.56339264780716
C          -10.17750815430864        2.33750009441190       -3.08195377935595
C          -10.60558662049012        3.40586176144048       -0.84834926357999
C          -11.24971843328396        1.04371196552477       -1.25476313771917
C           -7.73735802771722        2.59378093603584       -1.31692189717069
C           -6.44262697373710        2.31631710984448       -0.93006811600354
C           -6.19868819427662        1.10656057182991       -0.29420008299708
N           -5.01883157283628        0.57152450809061        0.17276175069362
C           -3.76540040368454        1.19418147848097        0.13880213251848
C           -3.60812898351360        2.50691162192300        0.59769612002861
C           -2.37773029188118        3.10929489307753        0.55922111156020
C           -1.24120757433916        2.41539232797147        0.09284417922246
C            0.02501654593490        3.11757973611761        0.05386271704178
O            0.03429426056274        4.38680042551297        0.05860546612285
C            1.28366324407787        2.40012816790510        0.00374259634594
C            2.42019829191074        3.07437772836290       -0.48894712902417
C            3.63972213928009        2.45183343176024       -0.55152743127321
C            3.78622347926051        1.13929659974609       -0.08862015381428
N            5.02647939836225        0.49363948437817       -0.15530960002302
C            6.23169553124588        1.01321010879477        0.26191115149594
C            6.51919906750083        2.22335263296526        0.87860930602857
C            7.83261279995943        2.48412619148802        1.21019450036075
C            8.87554104227713        1.58097414121759        0.96020220947153
C           10.29207966337716        1.96769611772514        1.35544491306162
C           10.68874906690436        3.24961273996999        0.60897394839704
C           10.34374539107489        2.21076767780917        2.87070940972025
C           11.31688091399876        0.88270834413673        1.01292670046123
C            8.57130963914183        0.36178828035033        0.36920509595846
C            7.26002102264906        0.07308250946620        0.02517182769676
C            6.62841603400906       -1.07576491738473       -0.56786974225403
C            7.11051497748638       -2.29235328398775       -1.02507316013563
C            6.23499080887242       -3.21422733954302       -1.58304386341959
C            6.69291999774809       -4.56952909846436       -2.09899727429726
C            6.37509668147991       -4.67125746978109       -3.59780618377323
C            5.95133152161421       -5.67499960733733       -1.33357613358848
C            8.19668444674356       -4.79261128433497       -1.91606046357605
C            4.87830590931607       -2.87539663575788       -1.68284011334543
C            4.37139295950471       -1.67254741472745       -1.23627269387178
C            5.25195143452046       -0.76933860157214       -0.65738000870234
C            2.68222475322050        0.48314063350136        0.46499237548787
C            1.45802083541260        1.10384122326650        0.52186194129836
C           -1.42458746314087        1.11677378565011       -0.41722837444287
C           -2.65912404036078        0.51563812609854       -0.38249173990044
H           -6.43871362602605       -6.54370099849360        1.69596491925342
H           -6.23906761421278       -5.49960899252111        0.28561927139243
H           -5.01227788971557       -5.52095394503920        1.55025368561121
H           -5.52349778866015       -4.47488683169282        3.82674317314988
H           -6.95299708680994       -5.49273428397394        3.97982956486958
H           -7.09750521917133       -3.73760763844969        4.11421840708216
H           -8.56764409977368       -4.61557672838831        0.77960264124731
H           -8.92250774195841       -3.90357539258195        2.36454340220551
H           -8.63247137575861       -5.63215586233217        2.21444096277447
H           -4.32222747158525       -3.49531823181245        2.20600827386101
H           -3.39231120192212       -1.37891388240079        1.43945547987154
H           -8.23138400669019       -2.36313592907640        0.85813065951198
H           -9.32130428426846       -0.23367714186337       -0.31867431370239
H           -9.49457276681818        3.13627999326041       -3.35673964173884
H           -9.86383194599722        1.43000908373195       -3.59381683672680
H          -11.17234592353879        2.60517543562998       -3.43165950524955
H           -9.92791533882787        4.22172846103246       -1.08292907576854
H          -10.60046301180485        3.25766376264083        0.22956960371208
H          -11.60838157996089        3.69898885971827       -1.15187227268225
H          -12.22358359505495        1.38816272616350       -1.59679160935082
H          -11.31680860468510        0.85735435107718       -0.18535858270784
H          -11.02572519162697        0.11120516349959       -1.76767675967613
H           -7.92391415396675        3.53567598569912       -1.80917553900032
H           -5.64478270022444        3.01500616269568       -1.12965286484965
H           -4.46043129503947        3.02896797677424        1.00753740090775
H           -2.24289864693192        4.12026173882629        0.91214567111378
H            2.29373591129514        4.08507766059895       -0.84563931942202
H            4.49024787004326        2.95740497506877       -0.98494178584889
H            5.74070269775812        2.93545529426468        1.10534611039915
H            8.05294968691152        3.42669685640028        1.68696037324498
H           11.70770514076008        3.53162892191809        0.86555557974736
H           10.63481057708894        3.09016682300087       -0.46601007682989
H           10.03310223582006        4.07742071683542        0.86351591774389
H           11.35666110102126        2.46733184003340        3.17374609524454
H            9.68506019661260        3.02241923740345        3.16619806775485
H           10.03982564666647        1.31337763454904        3.40572738060450
H           11.33547145223130        0.68528385075149       -0.05643990852514
H           11.10170220613664       -0.04151117235875        1.54428608858077
H           12.30933192991169        1.21599635498056        1.30959139957218
H            9.33230973701392       -0.37459765356945        0.17198755517920
H            8.16493582894058       -2.49568742884962       -0.94100712911803
H            6.87811866128797       -3.87539988540817       -4.14316561871098
H            5.30812215193396       -4.58986729063407       -3.78484893823427
H            6.71688918903415       -5.62739707483427       -3.98849839983841
H            6.15639060821080       -5.59621385381296       -0.26788868265844
H            4.87694732169335       -5.60792281459132       -1.47935409890976
H            6.28060712052701       -6.65334378769301       -1.67717913879471
H            8.46507451944228       -5.77693321662677       -2.29441025691934
H            8.47384794107225       -4.75047725336515       -0.86523220444510
H            8.77240015011773       -4.05352321523928       -2.46836921428593
H            4.19037046212413       -3.57587688293704       -2.13073717064808
H            3.32319095510271       -1.44009639599341       -1.34629097142485
H            2.81127297069119       -0.50487448800294        0.88347812827411
H            0.63393189210362        0.60428501226802        1.00812077777176
H           -0.59836238024285        0.60008516873551       -0.88135202878005
H           -2.79428985989136       -0.47400561572026       -0.79523444919368
