45
 energy: -78.680258510235 gnorm: 0.000058569248 xtb: 6.7.1 (edcfbbe)
O            3.87781078142616       -2.81553662974605       -1.36074260973468
S            2.96861625788877       -1.71551956629828       -1.53457039760494
O            2.46813412382811       -1.42409290884489       -2.84877294258200
C            3.73037110487422       -0.23058089544943       -0.86066420049376
C            4.74555360304583       -0.34689879735598        0.07150248284341
C            5.25195941108819        0.81285870653559        0.63688371971833
C            4.69670094660751        2.02465160605446        0.24692758379659
N            3.72864484105627        2.13231445299964       -0.64800112519985
C            3.25821094697648        1.02731054807135       -1.19801477174237
C            1.59326362469027       -1.88504131437972       -0.39344304206735
C            1.69226547835436       -2.72075971336981        0.70166026848890
C            0.66324314691157       -2.72643026667034        1.63108805331391
C           -0.42001430753859       -1.87895364544094        1.47817040128569
C           -0.51060896506485       -1.03656617113173        0.36931302044375
N           -1.58724948049310       -0.14825070243469        0.22539687303577
C           -1.35108899161096        1.22704466123199        0.08608669720191
C           -0.08079667599080        1.78142208624745        0.18180192731859
C            0.11800774443273        3.14507668239663        0.02889337434184
C           -0.95517518105782        3.98213710307566       -0.20043117024684
C           -2.23567680913655        3.45244790966527       -0.25115036320265
C           -2.43685846312515        2.09210992751589       -0.10164876345417
O           -3.73575109198331        1.65175350362438       -0.12512554728665
C           -3.94981410140803        0.30117914669010       -0.01894149236962
C           -5.26113079306755       -0.13177271213826       -0.09487406367128
C           -5.55666077736348       -1.48504150647610       -0.03414146259778
C           -4.52983083179309       -2.40023674479915        0.07876296535818
C           -3.21367894935516       -1.97102358963211        0.15848134906669
C           -2.90410544578921       -0.61730385755373        0.13948509361556
C            0.50602408432936       -1.06045581279614       -0.58347459035383
H            5.12215341635890       -1.32712574333414        0.32157996357629
H            6.05035532604718        0.77868360479357        1.36118223897094
H            5.04414546229805        2.95908665186177        0.66717018227029
H            2.48408043336537        1.14556188395307       -1.94279575384498
H            2.55851049928395       -3.35450822959006        0.80158600513026
H            0.71606993714996       -3.37674671084751        2.49082564191866
H           -1.20135942444084       -1.85537108482464        2.22319390932985
H            0.76927365106714        1.14864249329063        0.38521282600095
H            1.12197551463540        3.53547891154437        0.08808691935749
H           -0.80831185078419        5.04275412417950       -0.32786596488272
H           -3.09887802226386        4.08038711632419       -0.40343393429019
H           -6.03644843902751        0.60874758935248       -0.20868118913152
H           -6.58238666722771       -1.81318830095448       -0.09002896532365
H           -4.74068295078904       -3.45816451628163        0.10151136718793
H           -2.42075136956976       -2.69934165169304        0.22345279408776
H            0.45188625317063       -0.45073363734492       -1.47145430754853
