45
 energy: -78.590974624544 gnorm: 0.000059264038 xtb: 6.7.1 (edcfbbe)
O            2.62149348145354        1.47211476874376       -2.38481544149617
S            3.00223455206215        1.52050035734083       -0.99662771918406
O            4.01099390148558        2.45812221899819       -0.58408630123838
C            3.42488114139877       -0.12584136202773       -0.45824696782334
C            2.97367569399108       -1.22930895932981       -1.17754662060886
C            3.17028955228645       -2.48643124199410       -0.63519300524172
C            3.79729618635345       -2.57969888971885        0.60115289686992
N            4.23126062420360       -1.52374227266484        1.28506378595092
C            4.04750376860199       -0.32783403231852        0.76595734260457
C            1.54537917669164        1.74707746060868        0.00803293451598
C            1.59233546561004        2.48678548595368        1.18620045515084
C            0.50485173797976        2.48371247342256        2.03482595088062
C           -0.62030375521023        1.71947328919752        1.73792596713377
C           -0.64603189591195        0.96965963788580        0.55872602957929
N           -1.76073799054358        0.13996590257288        0.26572485723906
C           -2.97280718596117        0.69807292168579       -0.04941618401055
C           -3.18438912995013        2.08187255025950       -0.11791574968058
C           -4.41976555381389        2.58557599430735       -0.43197372316894
C           -5.50443029333993        1.71790534041314       -0.70461012285542
C           -5.32112908428137        0.35767693101023       -0.67788219084991
C           -4.07333873853819       -0.17839610790033       -0.36283809680433
O           -3.92266720428982       -1.51671303699286       -0.38005261291183
C           -2.72224607966344       -2.05191293142396       -0.08431888671991
C           -2.58387680826965       -3.43829520333474       -0.11389869536424
C           -1.38544012008123       -4.02358163383261        0.21231918787292
C           -0.28645800334990       -3.21880526912232        0.60021947061695
C           -0.39611272223767       -1.85371439111238        0.62911309264458
C           -1.59650914561196       -1.22229640909591        0.27038355476223
C            0.42692099615066        0.98990958646196       -0.31220150120472
H            2.50274574707838       -1.07681588572022       -2.13624963842672
H            2.84439524246745       -3.37353176353718       -1.15609674956419
H            3.96885735468172       -3.53705895430944        1.07372810023046
H            4.41182988626221        0.51654472207199        1.33461037279911
H            2.48414519113638        3.05323447006607        1.40007118026263
H            0.52548602500709        3.06166421982945        2.94579762733045
H           -1.46187245139446        1.68677495497315        2.41187788217860
H           -2.35744083943285        2.74682998184020        0.07587742226155
H           -4.56941889277800        3.65176273778933       -0.47953529937678
H           -6.46974416052875        2.13106717310521       -0.94627281145136
H           -6.12456779836696       -0.32609520722930       -0.90177421452191
H           -3.44293512650552       -4.02702794468181       -0.39448128075804
H           -1.27938391803352       -5.09543947431051        0.18714784685475
H            0.64396505239084       -3.68528460377134        0.87981677154533
H            0.44616606790204       -1.25198210369247        0.93352818716373
H            0.41197840172993        0.42972280744609       -1.23372559238516
