  52
  -80.2366748700000       0.300026301987165      !
 C          0.0026366357       -2.3078069343        2.1994935752
 C          1.2035576046       -1.8073264019        1.7368352523
 C          1.2044378975       -0.7493936576        0.7895299898
 N          2.4112066567       -0.2675115584        0.3005578158
 C          2.7705487879        1.0619049507        0.1682478412
 C          2.0820517853        2.2017977813        0.5411574967
 C          2.6906309093        3.4343558864        0.3292463718
 C          3.9609628607        3.5168514163       -0.2382434466
 C          4.6711982836        2.3815034523       -0.5859818021
 C          4.0853574428        1.1344244979       -0.3739692297
 C          4.5238368197       -0.2083996955       -0.5699419018
 C          5.6937430774       -0.7797324288       -1.0670160845
 C          5.7719228588       -2.1584308162       -1.1595129799
 C          4.7090619682       -2.9748059796       -0.7780650511
 C          3.5340063315       -2.4291532745       -0.2712931752
 C          3.4583465683       -1.0531696588       -0.1472965788
 C         -0.0023665057       -0.2218227433        0.3464798015
 C         -1.2065581739       -0.7509178456        0.7946348909
 N         -2.4151679674       -0.2693493643        0.3096790132
 C         -2.7726511399        1.0603508407        0.1769143344
 C         -2.0856529610        2.1986909641        0.5570922982
 C         -2.6912598188        3.4321070285        0.3426548236
 C         -3.9568173399        3.5168044231       -0.2349126398
 C         -4.6661673665        2.3828836438       -0.5888136390
 C         -4.0837329128        1.1348289185       -0.3736799675
 C         -4.5225342759       -0.2074473840       -0.5728885455
 C         -5.6896590536       -0.7770624414       -1.0783205916
 C         -5.7695293534       -2.1557391907       -1.1707472756
 C         -4.7111961656       -2.9737530317       -0.7804958748
 C         -3.5384566450       -2.4297927102       -0.2663665205
 C         -3.4609268037       -1.0537578904       -0.1435493625
 C         -1.2010014017       -1.8090754877        1.7414344243
 H          0.0047125589       -3.0980192743        2.9356570068
 H          2.1423037852       -2.1684857666        2.1238148526
 H          1.1088391121        2.1443415146        1.0016087238
 H          2.1715399720        4.3367767461        0.6120459352
 H          4.4023282528        4.4898436328       -0.3966291195
 H          5.6621179983        2.4541087166       -1.0067188441
 H          6.5174275036       -0.1554037269       -1.3767696300
 H          6.6707816419       -2.6148500944       -1.5467754312
 H          4.7928289726       -4.0450618855       -0.8836900280
 H          2.7034904962       -3.0643828331       -0.0037148535
 H         -0.0047483205        0.5497938469       -0.4080150717
 H         -1.1162550274        2.1388017239        1.0254284245
 H         -2.1737525074        4.3335349477        0.6312982600
 H         -4.3955833318        4.4905763739       -0.3957589273
 H         -5.6536983363        2.4574080390       -1.0168919083
 H         -6.5101160898       -0.1514343760       -1.3942474100
 H         -6.6667044695       -2.6108708081       -1.5639675385
 H         -4.7966326705       -4.0439920102       -0.8848783802
 H         -2.7112303465       -3.0664028039        0.0080108261
 H         -2.1377624587       -2.1717862418        2.1317850416
  52
  -80.2366422200000       0.289837401866578      !
 C         -0.0213020448       -2.5248235507        1.9680062500
 C          1.1832973199       -1.9764071661        1.5771016425
 C          1.1954469520       -0.8355041604        0.7306190507
 N          2.4048836963       -0.3092216483        0.3005607156
 C          2.7485397127        1.0310476928        0.2622748652
 C          2.0423179127        2.1358102534        0.7016514373
 C          2.6352226310        3.3875066235        0.5749936108
 C          3.9093525307        3.5234811268        0.0262370407
 C          4.6389059976        2.4221259892       -0.3843318397
 C          4.0685885484        1.1562124884       -0.2582258553
 C          4.5280834412       -0.1643485558       -0.5357087831
 C          5.7132496473       -0.6848296097       -1.0525428821
 C          5.8135223735       -2.0527887771       -1.2357457314
 C          4.7568496751       -2.9072591224       -0.9267478641
 C          3.5664394795       -2.4127848968       -0.4028956655
 C          3.4686757253       -1.0498054997       -0.1855790067
 C         -0.0093184078       -0.2714043884        0.3247944259
 C         -1.2161499066       -0.8416040049        0.7064424612
 N         -2.4188508572       -0.3032568959        0.2654693472
 C         -3.4587641141       -1.0197002484       -0.2981057510
 C         -3.5415484672       -2.3713047809       -0.5825616171
 C         -4.7048231380       -2.8404301109       -1.1841815469
 C         -5.7486620411       -1.9730948742       -1.4994536752
 C         -5.6638926172       -0.6157987319       -1.2415270644
 C         -4.5061880441       -0.1200800802       -0.6452918834
 C         -4.0656170003        1.1855842440       -0.2755171318
 C         -4.6370575956        2.4549337149       -0.3474400354
 C         -3.9298551647        3.5312791508        0.1584966488
 C         -2.6778976049        3.3666812827        0.7481040424
 C         -2.0834053803        2.1118398207        0.8215576816
 C         -2.7676285841        1.0347440977        0.2886507491
 C         -1.2216504361       -1.9894986549        1.5409415395
 H         -0.0262584330       -3.3823855238        2.6244582961
 H          2.1168615666       -2.3664567313        1.9483216173
 H          1.0662883755        2.0380545340        1.1485621414
 H          2.1002671146        4.2625918225        0.9092499707
 H          4.3378472325        4.5105408202       -0.0664683859
 H          5.6325393323        2.5344766215       -0.7896006591
 H          6.5315221957       -0.0293874482       -1.3075446952
 H          6.7244838923       -2.4697905270       -1.6394431643
 H          4.8573320830       -3.9666666993       -1.1033789226
 H          2.7414684165       -3.0767556441       -0.1948388951
 H         -0.0069757465        0.5687969153       -0.3524774927
 H         -2.7251436935       -3.0425421138       -0.3639417241
 H         -4.7942988094       -3.8902210504       -1.4160312705
 H         -6.6384470697       -2.3708146590       -1.9648135784
 H         -6.4732188337        0.0495011989       -1.4993255544
 H         -5.6150334851        2.5892834020       -0.7828047243
 H         -4.3600759456        4.5206583496        0.1094763057
 H         -2.1621651984        4.2218912349        1.1561586096
 H         -1.1259769033        1.9850354107        1.3014894426
 H         -2.1624644806       -2.3940779494        1.8765042514
  52
  -80.2360793200000       0.159758325268733      !
 C          0.1150746402       -1.0437390262        3.0023275330
 C          1.2867800151       -0.9292800902        2.2812752016
 C          1.2390578469       -0.4663421889        0.9385590946
 N          2.4187017222       -0.3052185587        0.2250360977
 C          2.7599135517        0.7993399991       -0.5351762223
 C          2.0768089376        1.9887772827       -0.7183427238
 C          2.6634937037        2.9617348950       -1.5211651530
 C          3.9040984849        2.7464646001       -2.1183374481
 C          4.6093242822        1.5735283466       -1.9148331309
 C          4.0482081539        0.5879864690       -1.1045456993
 C          4.4919436867       -0.6905726997       -0.6551245999
 C          5.6427345878       -1.4450433828       -0.8758123582
 C          5.7333539283       -2.7010649061       -0.3021062719
 C          4.6989006883       -3.2233278504        0.4721235186
 C          3.5421932577       -2.4883788380        0.7108588376
 C          3.4559964102       -1.2186924386        0.1671463948
 C          0.0148312875       -0.1356740440        0.3720798640
 C         -1.1595857336       -0.2517404058        1.1038539604
 N         -2.3886854663        0.0387648210        0.5276236091
 C         -3.3994512877        0.7744176945        1.1201177075
 C         -3.4085382960        1.4387587045        2.3340751846
 C         -4.5561251795        2.1429538300        2.6838024442
 C         -5.6576146235        2.1878656512        1.8312258532
 C         -5.6455527728        1.5530025067        0.6016432603
 C         -4.5054521311        0.8449962808        0.2258965561
 C         -4.1323487349        0.1236440355       -0.9464095214
 C         -4.7775942407       -0.1634743859       -2.1480519238
 C         -4.1233261550       -0.9472460170       -3.0819059590
 C         -2.8506088363       -1.4596979877       -2.8372438690
 C         -2.1806595913       -1.1771830273       -1.6512269005
 C         -2.8143088425       -0.3684144453       -0.7241707870
 C         -1.1052057581       -0.7163431912        2.4457397857
 H          0.1537606733       -1.3963630441        4.0224760249
 H          2.2423548098       -1.1280671059        2.7377653601
 H          1.1269796622        2.1741649825       -0.2410724501
 H          2.1498928414        3.8972953082       -1.6781536350
 H          4.3269662677        3.5199461996       -2.7423176108
 H          5.5771841502        1.4223883958       -2.3670726987
 H          6.4417281092       -1.0554708829       -1.4874335919
 H          6.6187064829       -3.2976693354       -0.4655862538
 H          4.7907626513       -4.2147739193        0.8872605339
 H          2.7335806498       -2.9101367280        1.2879047555
 H         -0.0240306006        0.2149229183       -0.6474694845
 H         -2.5488840312        1.4314526519        2.9865466494
 H         -4.5881460263        2.6676476220        3.6257905914
 H         -6.5337313316        2.7416207185        2.1350833878
 H         -6.4967459366        1.6075089385       -0.0592575905
 H         -5.7700874803        0.2145988609       -2.3383703729
 H         -4.6115801580       -1.1799916860       -4.0167353292
 H         -2.3767879796       -2.0881482354       -3.5750524915
 H         -1.2052241188       -1.5975801060       -1.4609845008
 H         -2.0227340901       -0.8627382247        2.9914024094
  52
  -80.2360663800000       0.157585657095356      !
 C         -0.1158388637       -1.0493861136        2.9879800830
 C          1.1051036351       -0.7166402999        2.4354417783
 C          1.1616382682       -0.2533235972        1.0936743693
 N          2.3926090609        0.0391586840        0.5213256094
 C          3.3962609396        0.7848995382        1.1130375771
 C          3.3934115034        1.4616541579        2.3200098113
 C          4.5343794564        2.1769513812        2.6692496266
 C          5.6407949307        2.2193371697        1.8232050687
 C          5.6414293085        1.5694762955        0.6012037240
 C          4.5082716592        0.8500766823        0.2260723660
 C          4.1472476170        0.1120364411       -0.9398203310
 C          4.8038017963       -0.1912527821       -2.1312764992
 C          4.1589756904       -0.9891082813       -3.0599160589
 C          2.8844396755       -1.4993655286       -2.8202572426
 C          2.2037795501       -1.2020529568       -1.6440949528
 C          2.8288828285       -0.3809430064       -0.7221203394
 C         -0.0102173153       -0.1402121123        0.3577260069
 C         -1.2355866465       -0.4728212548        0.9213567011
 N         -2.4155517122       -0.3100306478        0.2087087305
 C         -2.7637835455        0.8005828095       -0.5396793960
 C         -2.0791412931        1.9885193431       -0.7264297576
 C         -2.6748655785        2.9689790936       -1.5135154158
 C         -3.9258417734        2.7624285547       -2.0918905798
 C         -4.6318443832        1.5904564885       -1.8854034924
 C         -4.0613102893        0.5971783634       -1.0911887330
 C         -4.5025093656       -0.6830884650       -0.6445024376
 C         -5.6592805366       -1.4322131806       -0.8522443399
 C         -5.7444025055       -2.6925887808       -0.2871874385
 C         -4.6988808514       -3.2246860561        0.4653079914
 C         -3.5365772973       -2.4946250130        0.6920446989
 C         -3.4559241782       -1.2204737844        0.1581463774
 C         -1.2852076466       -0.9380829804        2.2631813466
 H         -0.1566790047       -1.4028070649        4.0077321163
 H          2.0215106905       -0.8580157711        2.9843613226
 H          2.5293859435        1.4553594908        2.9667884084
 H          4.5571854575        2.7118382325        3.6058103264
 H          6.5109386139        2.7829604865        2.1259005260
 H          6.4966623027        1.6218140623       -0.0544538282
 H          5.7973245037        0.1857898714       -2.3182537915
 H          4.6562545044       -1.2345056341       -3.9867664171
 H          2.4179982358       -2.1380458577       -3.5539458721
 H          1.2264852122       -1.6196237352       -1.4566606968
 H          0.0314856198        0.2099640910       -0.6618984738
 H         -1.1210711975        2.1673394989       -0.2633546775
 H         -2.1601691294        3.9035051662       -1.6731973083
 H         -4.3558564649        3.5419240038       -2.7034834672
 H         -5.6074584145        1.4457960243       -2.3229810615
 H         -6.4671763336       -1.0352304150       -1.4471950379
 H         -6.6342571336       -3.2850974626       -0.4409909402
 H         -4.7865399077       -4.2196763308        0.8727836852
 H         -2.7198227820       -2.9231967055        1.2524751262
 H         -2.2415568142       -1.1411945707        2.7162412159
  52
  -80.2355659000000       9.279231378216790E-002 !
 C          0.1070066082       -0.9881384643        2.9722578515
 C          1.2736482403       -0.9296601646        2.2355691355
 C          1.2289715451       -0.4676988606        0.8946141370
 N          2.4152605670       -0.3121453543        0.1860901114
 C          2.8114130226        0.8367830031       -0.4736641879
 C          2.1602886357        2.0518412078       -0.5881919515
 C          2.8079430664        3.0755962552       -1.2736452544
 C          4.0717722653        2.8799434620       -1.8258712506
 C          4.7375717179        1.6725061661       -1.7008779831
 C          4.1151790280        0.6347619278       -1.0088893162
 C          4.5047335048       -0.6908945243       -0.6533173438
 C          5.6358602779       -1.4668541166       -0.9001360953
 C          5.6639314823       -2.7679296920       -0.4280494633
 C          4.5906287328       -3.3123231902        0.2749464336
 C          3.4535519824       -2.5563375379        0.5416817680
 C          3.4266357275       -1.2478931906        0.0920060665
 C          0.0107597331       -0.1195370556        0.3273281855
 C         -1.1604207520       -0.2000102674        1.0693682872
 N         -2.3927079533        0.0763440595        0.4889532572
 C         -3.3830276867        0.8654150247        1.0412602939
 C         -3.3481421707        1.6410920406        2.1866165865
 C         -4.4794366785        2.3872557124        2.5017975758
 C         -5.6079774009        2.3569234765        1.6844435543
 C         -5.6425726767        1.6017308083        0.5247712461
 C         -4.5188385115        0.8516877619        0.1820404025
 C         -4.1858799596        0.0144079359       -0.9237993490
 C         -4.8755320006       -0.4049781061       -2.0604362602
 C         -4.2505724413       -1.2825657051       -2.9297972440
 C         -2.9619506673       -1.7537346965       -2.6878989444
 C         -2.2478659062       -1.3411896223       -1.5665421005
 C         -2.8579013727       -0.4497587290       -0.7023771434
 C         -1.1059869489       -0.6237724055        2.4227555839
 H          0.1443720878       -1.3245901838        3.9977752898
 H          2.2260177891       -1.1714075361        2.6784561397
 H          1.1897270313        2.2147476141       -0.1452291340
 H          2.3236239348        4.0344410287       -1.3727446491
 H          4.5437416641        3.6940589099       -2.3561602326
 H          5.7213158839        1.5353136863       -2.1222996369
 H          6.4677187810       -1.0596224006       -1.4536390374
 H          6.5327301806       -3.3817780990       -0.6152700212
 H          4.6372885914       -4.3360607350        0.6118375260
 H          2.6151276603       -2.9858723335        1.0687915476
 H         -0.0261658019        0.2183639676       -0.6972435881
 H         -2.4680382157        1.6823025967        2.8103129359
 H         -4.4783895781        3.0019514089        3.3882504686
 H         -6.4703699930        2.9459790231        1.9601179097
 H         -6.5166115396        1.5966317549       -0.1078744320
 H         -5.8792066300       -0.0570605742       -2.2495240159
 H         -4.7751296910       -1.6203519083       -3.8115039779
 H         -2.5102205577       -2.4519947176       -3.3750068291
 H         -1.2571090070       -1.7238486713       -1.3745897643
 H         -2.0215051371       -0.7120755915        2.9845782466
