  52
  -79.9254170462000       0.547628853716532      !
 C          0.0026366357       -2.3078069343        2.1994935752
 C          1.2035576046       -1.8073264019        1.7368352523
 C          1.2044378975       -0.7493936576        0.7895299898
 N          2.4112066567       -0.2675115584        0.3005578158
 C          2.7705487879        1.0619049507        0.1682478412
 C          2.0820517853        2.2017977813        0.5411574967
 C          2.6906309093        3.4343558864        0.3292463718
 C          3.9609628607        3.5168514163       -0.2382434466
 C          4.6711982836        2.3815034523       -0.5859818021
 C          4.0853574428        1.1344244979       -0.3739692297
 C          4.5238368197       -0.2083996955       -0.5699419018
 C          5.6937430774       -0.7797324288       -1.0670160845
 C          5.7719228588       -2.1584308162       -1.1595129799
 C          4.7090619682       -2.9748059796       -0.7780650511
 C          3.5340063315       -2.4291532745       -0.2712931752
 C          3.4583465683       -1.0531696588       -0.1472965788
 C         -0.0023665057       -0.2218227433        0.3464798015
 C         -1.2065581739       -0.7509178456        0.7946348909
 N         -2.4151679674       -0.2693493643        0.3096790132
 C         -2.7726511399        1.0603508407        0.1769143344
 C         -2.0856529610        2.1986909641        0.5570922982
 C         -2.6912598188        3.4321070285        0.3426548236
 C         -3.9568173399        3.5168044231       -0.2349126398
 C         -4.6661673665        2.3828836438       -0.5888136390
 C         -4.0837329128        1.1348289185       -0.3736799675
 C         -4.5225342759       -0.2074473840       -0.5728885455
 C         -5.6896590536       -0.7770624414       -1.0783205916
 C         -5.7695293534       -2.1557391907       -1.1707472756
 C         -4.7111961656       -2.9737530317       -0.7804958748
 C         -3.5384566450       -2.4297927102       -0.2663665205
 C         -3.4609268037       -1.0537578904       -0.1435493625
 C         -1.2010014017       -1.8090754877        1.7414344243
 H          0.0047125589       -3.0980192743        2.9356570068
 H          2.1423037852       -2.1684857666        2.1238148526
 H          1.1088391121        2.1443415146        1.0016087238
 H          2.1715399720        4.3367767461        0.6120459352
 H          4.4023282528        4.4898436328       -0.3966291195
 H          5.6621179983        2.4541087166       -1.0067188441
 H          6.5174275036       -0.1554037269       -1.3767696300
 H          6.6707816419       -2.6148500944       -1.5467754312
 H          4.7928289726       -4.0450618855       -0.8836900280
 H          2.7034904962       -3.0643828331       -0.0037148535
 H         -0.0047483205        0.5497938469       -0.4080150717
 H         -1.1162550274        2.1388017239        1.0254284245
 H         -2.1737525074        4.3335349477        0.6312982600
 H         -4.3955833318        4.4905763739       -0.3957589273
 H         -5.6536983363        2.4574080390       -1.0168919083
 H         -6.5101160898       -0.1514343760       -1.3942474100
 H         -6.6667044695       -2.6108708081       -1.5639675385
 H         -4.7966326705       -4.0439920102       -0.8848783802
 H         -2.7112303465       -3.0664028039        0.0080108261
 H         -2.1377624587       -2.1717862418        2.1317850416
  52
  -79.9247109532000       0.259411035415167      !
 C          0.1070066082       -0.9881384643        2.9722578515
 C          1.2736482403       -0.9296601646        2.2355691355
 C          1.2289715451       -0.4676988606        0.8946141370
 N          2.4152605670       -0.3121453543        0.1860901114
 C          2.8114130226        0.8367830031       -0.4736641879
 C          2.1602886357        2.0518412078       -0.5881919515
 C          2.8079430664        3.0755962552       -1.2736452544
 C          4.0717722653        2.8799434620       -1.8258712506
 C          4.7375717179        1.6725061661       -1.7008779831
 C          4.1151790280        0.6347619278       -1.0088893162
 C          4.5047335048       -0.6908945243       -0.6533173438
 C          5.6358602779       -1.4668541166       -0.9001360953
 C          5.6639314823       -2.7679296920       -0.4280494633
 C          4.5906287328       -3.3123231902        0.2749464336
 C          3.4535519824       -2.5563375379        0.5416817680
 C          3.4266357275       -1.2478931906        0.0920060665
 C          0.0107597331       -0.1195370556        0.3273281855
 C         -1.1604207520       -0.2000102674        1.0693682872
 N         -2.3927079533        0.0763440595        0.4889532572
 C         -3.3830276867        0.8654150247        1.0412602939
 C         -3.3481421707        1.6410920406        2.1866165865
 C         -4.4794366785        2.3872557124        2.5017975758
 C         -5.6079774009        2.3569234765        1.6844435543
 C         -5.6425726767        1.6017308083        0.5247712461
 C         -4.5188385115        0.8516877619        0.1820404025
 C         -4.1858799596        0.0144079359       -0.9237993490
 C         -4.8755320006       -0.4049781061       -2.0604362602
 C         -4.2505724413       -1.2825657051       -2.9297972440
 C         -2.9619506673       -1.7537346965       -2.6878989444
 C         -2.2478659062       -1.3411896223       -1.5665421005
 C         -2.8579013727       -0.4497587290       -0.7023771434
 C         -1.1059869489       -0.6237724055        2.4227555839
 H          0.1443720878       -1.3245901838        3.9977752898
 H          2.2260177891       -1.1714075361        2.6784561397
 H          1.1897270313        2.2147476141       -0.1452291340
 H          2.3236239348        4.0344410287       -1.3727446491
 H          4.5437416641        3.6940589099       -2.3561602326
 H          5.7213158839        1.5353136863       -2.1222996369
 H          6.4677187810       -1.0596224006       -1.4536390374
 H          6.5327301806       -3.3817780990       -0.6152700212
 H          4.6372885914       -4.3360607350        0.6118375260
 H          2.6151276603       -2.9858723335        1.0687915476
 H         -0.0261658019        0.2183639676       -0.6972435881
 H         -2.4680382157        1.6823025967        2.8103129359
 H         -4.4783895781        3.0019514089        3.3882504686
 H         -6.4703699930        2.9459790231        1.9601179097
 H         -6.5166115396        1.5966317549       -0.1078744320
 H         -5.8792066300       -0.0570605742       -2.2495240159
 H         -4.7751296910       -1.6203519083       -3.8115039779
 H         -2.5102205577       -2.4519947176       -3.3750068291
 H         -1.2571090070       -1.7238486713       -1.3745897643
 H         -2.0215051371       -0.7120755915        2.9845782466
  52
  -79.9244312974000       0.192960110868301      !
 C          0.1150746402       -1.0437390262        3.0023275330
 C          1.2867800151       -0.9292800902        2.2812752016
 C          1.2390578469       -0.4663421889        0.9385590946
 N          2.4187017222       -0.3052185587        0.2250360977
 C          2.7599135517        0.7993399991       -0.5351762223
 C          2.0768089376        1.9887772827       -0.7183427238
 C          2.6634937037        2.9617348950       -1.5211651530
 C          3.9040984849        2.7464646001       -2.1183374481
 C          4.6093242822        1.5735283466       -1.9148331309
 C          4.0482081539        0.5879864690       -1.1045456993
 C          4.4919436867       -0.6905726997       -0.6551245999
 C          5.6427345878       -1.4450433828       -0.8758123582
 C          5.7333539283       -2.7010649061       -0.3021062719
 C          4.6989006883       -3.2233278504        0.4721235186
 C          3.5421932577       -2.4883788380        0.7108588376
 C          3.4559964102       -1.2186924386        0.1671463948
 C          0.0148312875       -0.1356740440        0.3720798640
 C         -1.1595857336       -0.2517404058        1.1038539604
 N         -2.3886854663        0.0387648210        0.5276236091
 C         -3.3994512877        0.7744176945        1.1201177075
 C         -3.4085382960        1.4387587045        2.3340751846
 C         -4.5561251795        2.1429538300        2.6838024442
 C         -5.6576146235        2.1878656512        1.8312258532
 C         -5.6455527728        1.5530025067        0.6016432603
 C         -4.5054521311        0.8449962808        0.2258965561
 C         -4.1323487349        0.1236440355       -0.9464095214
 C         -4.7775942407       -0.1634743859       -2.1480519238
 C         -4.1233261550       -0.9472460170       -3.0819059590
 C         -2.8506088363       -1.4596979877       -2.8372438690
 C         -2.1806595913       -1.1771830273       -1.6512269005
 C         -2.8143088425       -0.3684144453       -0.7241707870
 C         -1.1052057581       -0.7163431912        2.4457397857
 H          0.1537606733       -1.3963630441        4.0224760249
 H          2.2423548098       -1.1280671059        2.7377653601
 H          1.1269796622        2.1741649825       -0.2410724501
 H          2.1498928414        3.8972953082       -1.6781536350
 H          4.3269662677        3.5199461996       -2.7423176108
 H          5.5771841502        1.4223883958       -2.3670726987
 H          6.4417281092       -1.0554708829       -1.4874335919
 H          6.6187064829       -3.2976693354       -0.4655862538
 H          4.7907626513       -4.2147739193        0.8872605339
 H          2.7335806498       -2.9101367280        1.2879047555
 H         -0.0240306006        0.2149229183       -0.6474694845
 H         -2.5488840312        1.4314526519        2.9865466494
 H         -4.5881460263        2.6676476220        3.6257905914
 H         -6.5337313316        2.7416207185        2.1350833878
 H         -6.4967459366        1.6075089385       -0.0592575905
 H         -5.7700874803        0.2145988609       -2.3383703729
 H         -4.6115801580       -1.1799916860       -4.0167353292
 H         -2.3767879796       -2.0881482354       -3.5750524915
 H         -1.2052241188       -1.5975801060       -1.4609845008
 H         -2.0227340901       -0.8627382247        2.9914024094
