45
 energy: -78.716305675424 gnorm: 0.000034306607 xtb: 6.7.1 (edcfbbe)
O            3.85149256508395       -2.52427920807604       -0.59669791652612
S            2.94196644742367       -1.43881122873037       -0.88802786567364
O            2.54154939461995       -1.25530836077160       -2.26411380931414
C            3.67541538936631        0.09241281120935       -0.29933996382171
C            4.51080046985421        0.07477334737917        0.80409703671590
C            5.01977185832311        1.28228847044946        1.25679814242238
C            4.65458499175853        2.43966145048405        0.58057850531287
N            3.85880100401950        2.45051497550687       -0.47732152028580
C            3.37891606042966        1.29921484484305       -0.91169969708811
C            1.47800714492107       -1.59994475787922        0.13781799813269
C            1.49651747986901       -2.42038342097673        1.24933024274793
C            0.36986631774254       -2.47599824790210        2.05603829603482
C           -0.74141139708223       -1.70809758411602        1.75471919357237
C           -0.75205384996757       -0.88552979337335        0.62738723294750
N           -1.88066941697320       -0.10349103017941        0.32270712279678
C           -1.77445194721745        1.29058980723691        0.23385759627837
C           -0.60320622391696        1.96937240674793        0.54756305776500
C           -0.53349134447947        3.35148613397590        0.45582134312703
C           -1.63813625283020        4.08079438566359        0.06379194437511
C           -2.82606045751629        3.42231446179867       -0.21742342231163
C           -2.89947605427898        2.04403665470201       -0.12608344473716
O           -4.12085606328220        1.46975127163997       -0.38582681886275
C           -4.20742734580405        0.10019261138947       -0.30437371244722
C           -5.43778026822808       -0.46392915747740       -0.58947508003328
C           -5.60002079428309       -1.84109751971956       -0.56255320538557
C           -4.51754307237443       -2.64618566507607       -0.26976873589912
C           -3.28263838567359       -2.08461660715447        0.01899011603219
C           -3.11144232229640       -0.70582983946390        0.03041048912129
C            0.37624509035757       -0.83834460932009       -0.18995254913162
H            4.75511704872723       -0.86711981505518        1.27061820708878
H            5.67904228259019        1.32470743468078        2.10880874928126
H            5.01708455536381        3.40940553610459        0.89448229998610
H            2.74169611374766        1.32795876731090       -1.78463088728399
H            2.37802719104655       -3.00571834858870        1.45476961988812
H            0.36291448946027       -3.11020037031124        2.92870305817882
H           -1.61121179679708       -1.73629738908685        2.39369155469022
H            0.26367921883741        1.41601952971844        0.87278285258176
H            0.39333495591031        3.84862553734189        0.69626812875685
H           -1.58940140416015        5.15518075082434       -0.01533271553516
H           -3.71431908649002        3.96175333804101       -0.50635456674636
H           -6.25551562275347        0.19479245320000       -0.83625393788207
H           -6.56409672547041       -2.27152447960476       -0.78272869612839
H           -4.62101805032395       -3.72030714393438       -0.26603891922929
H           -2.44283456935514       -2.72862742690518        0.22564354788156
H            0.39586609599759       -0.23114207902338       -1.08129432212751
