45
 energy: -78.628585198752 gnorm: 0.000057732374 xtb: 6.7.1 (edcfbbe)
O            3.78967376050947       -2.56146604934793       -0.74813224727583
S            2.91818959774663       -1.41949519937395       -0.95918582271518
O            2.46878829875233       -1.17073688604045       -2.31792163471357
C            3.69876198825524        0.03691974759022       -0.32822361473938
C            4.65617790255951       -0.04965436778071        0.68984684521629
C            5.11342088346368        1.12380232555787        1.25381455972980
C            4.59419778008481        2.33144575590331        0.79494533090721
N            3.67768280877460        2.41231409764610       -0.17507521472721
C            3.24449322961147        1.29558206503883       -0.71439941114100
C            1.50047263381567       -1.55395071622036        0.09279498483667
C            1.59798445723961       -2.19035859992490        1.33436190062032
C            0.54045050231143       -2.13259876839918        2.21371857128353
C           -0.61986580555010       -1.43258926622243        1.88414471781500
C           -0.70060828761497       -0.79277951077551        0.64089525698934
N           -1.87614126264652       -0.07055340191414        0.29757189896997
C           -1.83204374899048        1.29863320708867        0.20537354504325
C           -0.68139044930373        2.04737340411313        0.49017222575933
C           -0.69248576552276        3.41578902005069        0.37815930374057
C           -1.86098866952092        4.09483809422381       -0.01705148071995
C           -3.01268754024278        3.39016576052184       -0.28118452967910
C           -3.02305580564033        2.00164811799423       -0.17156848867959
O           -4.17644023866232        1.34863178722867       -0.42009043735921
C           -4.20854321512273        0.00411022222748       -0.32074206564753
C           -5.40924283435120       -0.65003816721405       -0.58826190539156
C           -5.47749775763948       -2.02224534715541       -0.51990951232679
C           -4.32993956409840       -2.77071679513849       -0.19619927169625
C           -3.13680667382054       -2.14511253256206        0.07182085253786
C           -3.04191837728895       -0.74747334931134        0.03534675689862
C            0.35146650386671       -0.84567641544160       -0.25200639677729
H            5.01769351831964       -1.02169031743980        0.98747510195347
H            5.85783478714405        1.11164690444994        2.03489758373681
H            4.91569312224435        3.27746061279172        1.20607814941283
H            2.51090399152349        1.38230098366664       -1.50479025991024
H            2.50410327543494       -2.72787671891847        1.56292737999197
H            0.60547397318268       -2.62718439578289        3.17046031075880
H           -1.44446365544917       -1.37194176022789        2.57545736810631
H            0.21718737731730        1.53546200083827        0.79561129813939
H            0.20357124673423        3.97417690417329        0.59475950636593
H           -1.85174008486007        5.16878369150517       -0.10545478768140
H           -3.92553373553355        3.88396586882102       -0.57396940228764
H           -6.26728530829894       -0.05160987950428       -0.84973990550847
H           -6.40677215710969       -2.52799508403969       -0.72521737633138
H           -4.38735443534070       -3.84664869821582       -0.16319400188562
H           -2.25794753572464       -2.72325716801583        0.30759902357390
H            0.30204874338058       -0.37390881038031       -1.22058984120777
