45
 energy: -78.716336169620 gnorm: 0.000046457670 xtb: 6.7.1 (edcfbbe)
O            3.67621186672469       -2.85641212778772       -1.43229943615472
S            2.89934222072830       -1.63881045044353       -1.49739495941527
O            2.37035912233104       -1.25310515398239       -2.78562797101481
C            3.90624413123458       -0.29001018949675       -0.86736868339742
C            5.00371909751141       -0.55742056133638       -0.06814723865367
C            5.72493398807798        0.51631234028525        0.43147002104081
C            5.29701593516060        1.79755967266648        0.10791249744301
N            4.24734018446776        2.04805774570811       -0.65939482304926
C            3.56574159880854        1.02479919664074       -1.14154228162945
C            1.55485936395846       -1.72560699868878       -0.31231815161243
C            1.66556266023291       -2.54782056035855        0.79285887625621
C            0.63923315694423       -2.55300705228663        1.72528313659264
C           -0.46359400113223       -1.73451865231250        1.55263810900838
C           -0.56846741518619       -0.91157956386168        0.43063712222989
N           -1.69000983400884       -0.08162892720768        0.25369076737638
C           -1.53534317484344        1.30664832757772        0.14665785145913
C           -0.30883685086252        1.93478116155200        0.32571641059488
C           -0.19167516641924        3.31296094981980        0.22248229501610
C           -1.30138878999236        4.08863974883006       -0.04737955524649
C           -2.53982830900534        3.48118200403414       -0.19313519382182
C           -2.66047349809968        2.10704750888488       -0.09012284552262
O           -3.92632172329329        1.58487055497593       -0.21143888340554
C           -4.06138701555598        0.22055867739844       -0.11066976333677
C           -5.33886879146413       -0.29103597046116       -0.25082063953424
C           -5.55535183192726       -1.65990147862464       -0.19551597332150
C           -4.48198890050923       -2.51006710411936       -0.02032494498486
C           -3.19964898871216       -2.00129419326658        0.12254255983582
C           -2.97004671512872       -0.63108652195412        0.10510131745401
C            0.45816495782536       -0.91449016350715       -0.51247593418978
H            5.27530898299382       -1.58274057845000        0.13130600345018
H            6.59218273310956        0.36371660398149        1.05350431412898
H            5.81771315741745        2.67156321393022        0.47566595524664
H            2.72287152670811        1.25285173409789       -1.77886416462612
H            2.53564224505294       -3.17547247224505        0.89623608339598
H            0.70457199054660       -3.18791674786133        2.59502503022228
H           -1.25378028289119       -1.72436683332313        2.28830672260831
H            0.56517559151901        1.34540292878047        0.55432899788951
H            0.77646997984907        3.76969420777567        0.35717485455856
H           -1.21698611008964        5.16023985134690       -0.13460631916338
H           -3.43105082839930        4.05797645368603       -0.38448449971183
H           -6.15074195942502        0.40134013568927       -0.40909261356016
H           -6.55554357053011       -2.04912744738299       -0.30197155609369
H           -4.62981949359847       -3.57871107821359        0.00295143765003
H           -2.36973968874123       -2.68011190173707        0.23762352554519
H            0.40222544861339       -0.30995628873785       -1.40411845753040
