  62
       -111.99744434
 F         -5.5325532816       -2.7514672501       -0.6114172997
 C         -4.3675986870       -2.4355826466       -0.0382458839
 N         -3.9696418618       -3.2348376615        0.9387032995
 C         -2.8127328107       -2.9366689630        1.5099787390
 F         -2.4147071996       -3.7565293551        2.4888041869
 C         -2.0227361874       -1.8686623020        1.1437655686
 F         -0.8599607584       -1.6554250961        1.7989301475
 C         -2.4176123617       -1.0093671483        0.0954965610
 C         -1.6718026495        0.2757490971       -0.1915283381
 C         -0.1715375428        0.1241315620       -0.1571138171
 C          0.4239314902       -1.0266060468       -0.6871316140
 C          1.7918124129       -1.1933778223       -0.7074472601
 C          2.5781913130       -0.1758112956       -0.1784049955
 C          1.9919008521        1.0162755635        0.3118685035
 C          0.6172503406        1.1656546729        0.3162603563
 C          3.0796848106        1.8633472390        0.7253484914
 C          3.1427540276        3.1250594400        1.2953820857
 C          4.3863179261        3.6492867259        1.6034418880
 C          5.5502355638        2.9246939717        1.3646487173
 C          5.5114444077        1.6632215202        0.7973409118
 C          4.2690005511        1.1441772224        0.4627096900
 N          3.9469303726       -0.0831849719       -0.0848170815
 C          4.8608108269       -1.0784565399       -0.4584662878
 C          5.9422265056       -0.7631319669       -1.2767965219
 C          6.8419258018       -1.7489538639       -1.6370363381
 C          6.6682235354       -3.0497876768       -1.1931750532
 C          5.5899221885       -3.3645362956       -0.3820862351
 C          4.6878595039       -2.3854767584       -0.0100334253
 C         -2.0328138184        0.9431185344       -1.5045335125
 C         -1.6733371442        0.5917564362       -2.7750601794
 C         -2.1528710930        1.3504691289       -3.8461473117
 C         -2.9674211512        2.4753760636       -3.6240414345
 C         -3.3139752747        2.8646066582       -2.3600740079
 C         -2.8441034363        2.1081495202       -1.2585167133
 C         -3.0132367945        2.2691280724        0.1196333907
 C         -3.7380456105        3.2235014446        0.8754255531
 C         -3.6538874380        3.1906445327        2.2371283455
 C         -2.8716096381        2.2162846651        2.8981825655
 C         -2.1829484822        1.2425390821        2.1803426008
 C         -2.2526789916        1.2515720697        0.8105673171
 C         -3.6569942515       -1.3396881313       -0.4876890102
 F         -4.1707356422       -0.6003385846       -1.4909259450
 H         -0.2089439815       -1.8111562495       -1.0754688641
 H          2.2339258888       -2.0847271510       -1.1251024450
 H          0.1606787278        2.0696149027        0.6898993393
 H          2.2399327656        3.6803195777        1.4980209517
 H          4.4576522781        4.6315910228        2.0451666838
 H          6.5044159626        3.3531173444        1.6316493623
 H          6.4176389848        1.1002017248        0.6343237141
 H          6.0589271918        0.2467439661       -1.6407543175
 H          7.6778315782       -1.5015899956       -2.2738705499
 H          7.3719587914       -3.8164772529       -1.4783158128
 H          5.4544960444       -4.3758692811       -0.0298012933
 H          3.8606759229       -2.6193657125        0.6431901870
 H         -1.0554596438       -0.2744688585       -2.9609346612
 H         -1.9102083826        1.0609115047       -4.8563657708
 H         -3.3176155718        3.0383248567       -4.4768835771
 H         -3.9254060133        3.7368226135       -2.1884549058
 H         -4.3395189650        3.9613318266        0.3671141552
 H         -4.1905213215        3.9141760087        2.8326669969
 H         -2.8220098926        2.2210494098        3.9755779762
 H         -1.6017625961        0.4995745038        2.7049397039
