  62
       -111.99744434
 F         -5.5325532816       -2.7514672501       -0.6114172997
 C         -4.3675986870       -2.4355826466       -0.0382458839
 N         -3.9696418618       -3.2348376615        0.9387032995
 C         -2.8127328107       -2.9366689630        1.5099787390
 F         -2.4147071996       -3.7565293551        2.4888041869
 C         -2.0227361874       -1.8686623020        1.1437655686
 F         -0.8599607584       -1.6554250961        1.7989301475
 C         -2.4176123617       -1.0093671483        0.0954965610
 C         -1.6718026495        0.2757490971       -0.1915283381
 C         -0.1715375428        0.1241315620       -0.1571138171
 C          0.4239314902       -1.0266060468       -0.6871316140
 C          1.7918124129       -1.1933778223       -0.7074472601
 C          2.5781913130       -0.1758112956       -0.1784049955
 C          1.9919008521        1.0162755635        0.3118685035
 C          0.6172503406        1.1656546729        0.3162603563
 C          3.0796848106        1.8633472390        0.7253484914
 C          3.1427540276        3.1250594400        1.2953820857
 C          4.3863179261        3.6492867259        1.6034418880
 C          5.5502355638        2.9246939717        1.3646487173
 C          5.5114444077        1.6632215202        0.7973409118
 C          4.2690005511        1.1441772224        0.4627096900
 N          3.9469303726       -0.0831849719       -0.0848170815
 C          4.8608108269       -1.0784565399       -0.4584662878
 C          5.9422265056       -0.7631319669       -1.2767965219
 C          6.8419258018       -1.7489538639       -1.6370363381
 C          6.6682235354       -3.0497876768       -1.1931750532
 C          5.5899221885       -3.3645362956       -0.3820862351
 C          4.6878595039       -2.3854767584       -0.0100334253
 C         -2.0328138184        0.9431185344       -1.5045335125
 C         -1.6733371442        0.5917564362       -2.7750601794
 C         -2.1528710930        1.3504691289       -3.8461473117
 C         -2.9674211512        2.4753760636       -3.6240414345
 C         -3.3139752747        2.8646066582       -2.3600740079
 C         -2.8441034363        2.1081495202       -1.2585167133
 C         -3.0132367945        2.2691280724        0.1196333907
 C         -3.7380456105        3.2235014446        0.8754255531
 C         -3.6538874380        3.1906445327        2.2371283455
 C         -2.8716096381        2.2162846651        2.8981825655
 C         -2.1829484822        1.2425390821        2.1803426008
 C         -2.2526789916        1.2515720697        0.8105673171
 C         -3.6569942515       -1.3396881313       -0.4876890102
 F         -4.1707356422       -0.6003385846       -1.4909259450
 H         -0.2089439815       -1.8111562495       -1.0754688641
 H          2.2339258888       -2.0847271510       -1.1251024450
 H          0.1606787278        2.0696149027        0.6898993393
 H          2.2399327656        3.6803195777        1.4980209517
 H          4.4576522781        4.6315910228        2.0451666838
 H          6.5044159626        3.3531173444        1.6316493623
 H          6.4176389848        1.1002017248        0.6343237141
 H          6.0589271918        0.2467439661       -1.6407543175
 H          7.6778315782       -1.5015899956       -2.2738705499
 H          7.3719587914       -3.8164772529       -1.4783158128
 H          5.4544960444       -4.3758692811       -0.0298012933
 H          3.8606759229       -2.6193657125        0.6431901870
 H         -1.0554596438       -0.2744688585       -2.9609346612
 H         -1.9102083826        1.0609115047       -4.8563657708
 H         -3.3176155718        3.0383248567       -4.4768835771
 H         -3.9254060133        3.7368226135       -2.1884549058
 H         -4.3395189650        3.9613318266        0.3671141552
 H         -4.1905213215        3.9141760087        2.8326669969
 H         -2.8220098926        2.2210494098        3.9755779762
 H         -1.6017625961        0.4995745038        2.7049397039
  62
       -111.99731512
 F         -5.5612291831       -2.7387872525       -0.5444621958
 C         -4.3928859093       -2.4219675402        0.0212686445
 N         -4.0010038563       -3.2051607447        1.0137011225
 C         -2.8418083056       -2.9058819122        1.5793601274
 F         -2.4516410608       -3.7088443540        2.5750293524
 C         -2.0422279769       -1.8523487538        1.1917363202
 F         -0.8783842753       -1.6342052282        1.8430204772
 C         -2.4303540282       -1.0114531598        0.1266120242
 C         -1.6753389201        0.2618867121       -0.1851966124
 C         -0.1757462721        0.1036858304       -0.1263480357
 C          0.4217449587       -1.0383279060       -0.6730684413
 C          1.7901047638       -1.2017242591       -0.6990081262
 C          2.5754852599       -0.1953881998       -0.1475374242
 C          1.9857465352        0.9769113608        0.3846263467
 C          0.6114733503        1.1290847494        0.3824791509
 C          3.0701611419        1.8114094999        0.8308600728
 C          3.1285685364        3.0469499126        1.4560063243
 C          4.3704937541        3.5630258403        1.7839159165
 C          5.5373175792        2.8561487778        1.5089947605
 C          5.5030304788        1.6206194744        0.8868798808
 C          4.2619358851        1.1098039320        0.5350909357
 N          3.9444956000       -0.0968797792       -0.0588915762
 C          4.8664867094       -1.0486183727       -0.5165321165
 C          5.9152427116       -0.6570786018       -1.3447682297
 C          6.8216963553       -1.5970472666       -1.7977963158
 C          6.6875691471       -2.9277229960       -1.4359314643
 C          5.6433354039       -3.3177271991       -0.6131387330
 C          4.7343397622       -2.3850752039       -0.1492728438
 C         -2.0097076934        0.8922578421       -1.5240112507
 C         -1.6531402840        0.4884572683       -2.7796209498
 C         -2.1029363637        1.2241185124       -3.8796824698
 C         -2.8838936480        2.3800805091       -3.7020500974
 C         -3.2289225758        2.8201238636       -2.4545082986
 C         -2.7932894705        2.0848091757       -1.3245208128
 C         -2.9826233852        2.2886299565        0.0451444911
 C         -3.6998749321        3.2799300250        0.7599952145
 C         -3.6494830526        3.2781309482        2.1237089005
 C         -2.9108759118        2.2993928753        2.8270061268
 C         -2.2302214383        1.2913086476        2.1493218950
 C         -2.2626134649        1.2716066968        0.7784571349
 C         -3.6729045922       -1.3412938681       -0.4495600086
 F         -4.1804023386       -0.6143335408       -1.4648540795
 H         -0.2100842185       -1.8179990855       -1.0728030500
 H          2.2327523703       -2.0825286100       -1.1378877861
 H          0.1550185145        2.0242962117        0.7764697766
 H          2.2235502180        3.5876010180        1.6864678961
 H          4.4381585413        4.5240038166        2.2706995913
 H          6.4901390209        3.2773301897        1.7918977251
 H          6.4113458406        1.0698008226        0.6961800678
 H          5.9997594589        0.3768582527       -1.6444480846
 H          7.6312269475       -1.2901657822       -2.4428054075
 H          7.3957551484       -3.6589705064       -1.7943197803
 H          5.5395059239       -4.3527682395       -0.3247180003
 H          3.9336734931       -2.6794125127        0.5122959235
 H         -1.0590659614       -0.4001061373       -2.9337162306
 H         -1.8622735567        0.8928037113       -4.8775305287
 H         -3.2096910014        2.9250574556       -4.5759726389
 H         -3.8148778442        3.7155108717       -2.3166873852
 H         -4.2698971172        4.0197796199        0.2194622814
 H         -4.1810684297        4.0297172805        2.6883129413
 H         -2.8882246208        2.3283549922        3.9049679122
 H         -1.6829735443        0.5453445375        2.7055380062
  62
       -111.99729863
 F         -5.5457338492       -2.7294055255       -0.7007471290
 C         -4.3809159949       -2.4376403138       -0.1146342098
 N         -3.9891852868       -3.2697153395        0.8369994632
 C         -2.8331201987       -2.9937545142        1.4210378930
 F         -2.4408380572       -3.8458016991        2.3743672596
 C         -2.0378521768       -1.9177825876        1.0914701756
 F         -0.8771601087       -1.7306114703        1.7582915826
 C         -2.4242096877       -1.0250165543        0.0680874747
 C         -1.6713526424        0.2629948262       -0.1821647754
 C         -0.1708713539        0.1123782815       -0.1659799443
 C          0.4288330426       -1.0516984990       -0.6599035339
 C          1.7976544076       -1.2130722957       -0.6740968930
 C          2.5801655119       -0.1701075220       -0.1906808750
 C          1.9900311051        1.0423979349        0.2414274660
 C          0.6144147366        1.1798172603        0.2551021507
 C          3.0760499449        1.9177199681        0.5967156730
 C          3.1357830084        3.2126766011        1.0869497431
 C          4.3784853050        3.7633174691        1.3482805474
 C          5.5449701223        3.0325409375        1.1433127107
 C          5.5095005354        1.7377079184        0.6567615485
 C          4.2677505194        1.1909937179        0.3671645981
 N          3.9485456422       -0.0675905058       -0.1064891360
 C          4.8614527883       -1.0929428889       -0.3913977335
 C          5.9541877478       -0.8510408189       -1.2190726337
 C          6.8539863365       -1.8670532282       -1.4829068932
 C          6.6694752391       -3.1249616188       -0.9324899566
 C          5.5786682570       -3.3672521475       -0.1133416732
 C          4.6758031924       -2.3576635732        0.1615320199
 C         -2.0389535162        0.9774914939       -1.4677203557
 C         -1.6917280116        0.6655740374       -2.7520378220
 C         -2.1727303482        1.4641136655       -3.7927889426
 C         -2.9745190794        2.5887243847       -3.5259122370
 C         -3.3085151096        2.9380862146       -2.2469968963
 C         -2.8379106084        2.1403894868       -1.1754924514
 C         -2.9935607718        2.2559229527        0.2089943325
 C         -3.7036303151        3.1892524194        1.0039585760
 C         -3.6026115386        3.1122584032        2.3628041440
 C         -2.8163341979        2.1143387819        2.9824054496
 C         -2.1428228244        1.1599883926        2.2253027945
 C         -2.2328584720        1.2112212902        0.8577316842
 C         -3.6641727971       -1.3313981997       -0.5274781738
 F         -4.1738132412       -0.5590881932       -1.5077689185
 H         -0.1999448179       -1.8515521108       -1.0226989926
 H          2.2440659152       -2.1191661946       -1.0538905121
 H          0.1533132369        2.0948079909        0.5947750634
 H          2.2310888045        3.7738123852        1.2629002922
 H          4.4472707089        4.7719865970        1.7263659506
 H          6.4987713472        3.4833222664        1.3722438611
 H          6.4181256175        1.1719215080        0.5196020316
 H          6.0805792714        0.1241868967       -1.6648755581
 H          7.6998470567       -1.6769174743       -2.1261989762
 H          7.3742572243       -3.9150288635       -1.1416098277
 H          5.4339377302       -4.3448353979        0.3209886532
 H          3.8374392213       -2.5332778366        0.8187352336
 H         -1.0836771199       -0.2003263291       -2.9699822250
 H         -1.9424365563        1.2061622402       -4.8144496941
 H         -3.3252600952        3.1839047224       -4.3563116329
 H         -3.9096254810        3.8102153877       -2.0412913581
 H         -4.3063892277        3.9469688719        0.5272188086
 H         -4.1278841710        3.8189936092        2.9879621069
 H         -2.7532642543        2.0842066772        4.0587835433
 H         -1.5585071531        0.3984759355        2.7187087448
  62
       -111.99717987
 F         -5.5708549273       -2.7317872297       -0.6738963802
 C         -4.3934218456       -2.4513622916       -0.1078726626
 N         -3.9787385219       -3.3045873822        0.8149814714
 C         -2.8133989522       -3.0365939538        1.3839451510
 F         -2.3999457880       -3.9078991452        2.3103511060
 C         -2.0288639289       -1.9493517638        1.0643133143
 F         -0.8604750666       -1.7690839963        1.7194118741
 C         -2.4351543023       -1.0398963890        0.0641673471
 C         -1.6863908643        0.2483159062       -0.1884600086
 C         -0.1840231408        0.1030939993       -0.1851706059
 C          0.4226403274       -1.0567370546       -0.6801200028
 C          1.7923783698       -1.2124539718       -0.6874701321
 C          2.5686181824       -0.1667487400       -0.1995015542
 C          1.9713132785        1.0447419619        0.2249673262
 C          0.5955446531        1.1757130477        0.2342724331
 C          3.0509633616        1.9261857175        0.5831248296
 C          3.1007245480        3.2243893299        1.0657784165
 C          4.3390916906        3.7831725615        1.3304693447
 C          5.5101915910        3.0566572506        1.1370176662
 C          5.4842739540        1.7581793704        0.6590142919
 C          4.2471638453        1.2032527209        0.3650996204
 N          3.9359202736       -0.0587190484       -0.1054557564
 C          4.8526987766       -1.0852829089       -0.3728787203
 C          5.9546228837       -0.8495153006       -1.1899342167
 C          6.8568968459       -1.8677797481       -1.4364761932
 C          6.6660531396       -3.1215037556       -0.8787563250
 C          5.5663399149       -3.3575271872       -0.0695003400
 C          4.6606483252       -2.3458200866        0.1876012694
 C         -2.0573910212        0.9661622879       -1.4712901832
 C         -1.7513244576        0.6322612936       -2.7605039861
 C         -2.2196091766        1.4447805760       -3.7964519667
 C         -2.9635738056        2.6063017559       -3.5200231313
 C         -3.2560420130        2.9763843411       -2.2367881506
 C         -2.8026818754        2.1619905096       -1.1701285290
 C         -2.9377040120        2.2846289080        0.2159987799
 C         -3.5948446475        3.2504436989        1.0183341707
 C         -3.4884706948        3.1646821515        2.3764303552
 C         -2.7532850428        2.1248695284        2.9887269861
 C         -2.1303336448        1.1417086475        2.2237858649
 C         -2.2206119829        1.2062505251        0.8575709767
 C         -3.6875727503       -1.3343960649       -0.5106737729
 F         -4.2199871322       -0.5378693073       -1.4585011916
 H         -0.2005114852       -1.8593147776       -1.0464442443
 H          2.2440947957       -2.1171873339       -1.0642104175
 H          0.1304253215        2.0900138466        0.5700867032
 H          2.1918034031        3.7816234995        1.2325184306
 H          4.4006117553        4.7949679685        1.7014398076
 H          6.4604367006        3.5142930858        1.3670093175
 H          6.3969396830        1.1968240044        0.5307747732
 H          6.0857298157        0.1221436036       -1.6420556779
 H          7.7094959358       -1.6827213532       -2.0723654841
 H          7.3728860132       -3.9131783677       -1.0742537291
 H          5.4164544874       -4.3319085217        0.3702248870
 H          3.8149373310       -2.5161088974        0.8367763624
 H         -1.1856021328       -0.2600248295       -2.9856756652
 H         -2.0225671401        1.1712909372       -4.8209471900
 H         -3.3029140481        3.2132421502       -4.3467398572
 H         -3.8128108988        3.8757910120       -2.0241281660
 H         -4.1611070850        4.0394207588        0.5477047741
 H         -3.9714914142        3.8968010493        3.0065018548
 H         -2.6859209814        2.0873537713        4.0645040893
 H         -1.5820085546        0.3501104188        2.7110746183
  62
       -111.99713301
 F         -2.5295552435       -3.7435342494       -2.4394416426
 C         -2.8845587806       -2.9308342615       -1.4387152468
 N         -4.0192096152       -3.2290869013       -0.8246543776
 C         -4.3756136964       -2.4363434943        0.1732451434
 F         -5.5191296689       -2.7517032048        0.7883181363
 C         -3.6431347871       -1.3472011108        0.6036230095
 F         -4.1150544021       -0.6130730268        1.6309899975
 C         -2.4257144271       -1.0178191203       -0.0243845323
 C         -1.6647106525        0.2621310824        0.2440350271
 C         -0.1665593981        0.1108289741        0.1494036491
 C          0.4502873082       -1.0453329885        0.6417736379
 C          1.8192322684       -1.2046888344        0.6196340003
 C          2.5864600753       -0.1656838594        0.1043933996
 C          1.9761360104        1.0095114145       -0.3973462731
 C          0.6011974984        1.1508432685       -0.3604863615
 C          3.0421857634        1.8441751150       -0.8858174367
 C          3.0795440531        3.1014586190       -1.4676171563
 C          4.3103111521        3.6340976187       -1.8107312429
 C          5.4886149538        2.9349654787       -1.5666756889
 C          5.4755003840        1.6787021431       -0.9868036685
 C          4.2427559126        1.1303348544       -0.6634042379
 N          3.9486210338       -0.0789352897       -0.0629061640
 C          4.8832445492       -1.0550512738        0.3107830589
 C          5.8314619873       -1.5003604262       -0.6061997576
 C          6.7509787306       -2.4623089424       -0.2319355153
 C          6.7298086110       -2.9885691530        1.0494782671
 C          5.7847993245       -2.5473871284        1.9614469505
 C          4.8642373615       -1.5818408894        1.5994390060
 C         -2.2830411576        1.2504568883       -0.7229772762
 C         -2.2777269001        1.2502622612       -2.0944077721
 C         -2.9889092154        2.2362240377       -2.7729679119
 C         -3.7295610029        3.2133778054       -2.0695298681
 C         -3.7504384164        3.2368254574       -0.7052005688
 C         -3.0015328773        2.2693040468        0.0097058039
 C         -2.7746819688        2.0936083140        1.3775620480
 C         -3.1909718099        2.8426846974        2.5056768747
 C         -2.8031515897        2.4320569865        3.7506716748
 C         -1.9975758123        1.2926447296        3.9279684911
 C         -1.5676806948        0.5427862800        2.8297797958
 C         -1.9680616758        0.9164782756        1.5779628575
 C         -2.0760366900       -1.8690252034       -1.0948519494
 F         -0.9401699659       -1.6529157889       -1.7939909568
 H         -0.1670521065       -1.8435990414        1.0273164730
 H          2.2750813885       -2.1166231942        0.9731339011
 H          0.1279314286        2.0453004550       -0.7361143646
 H          2.1675917828        3.6505960280       -1.6442635656
 H          4.3612623361        4.6107960406       -2.2674540679
 H          6.4342599169        3.3828206049       -1.8322206908
 H          6.3950802218        1.1512943745       -0.7843062312
 H          5.8268599917       -1.1060789116       -1.6111861845
 H          7.4816746498       -2.8087524302       -0.9471729696
 H          7.4481391968       -3.7409271600        1.3368009357
 H          5.7684261596       -2.9519121704        2.9621990584
 H          4.1408055628       -1.2171312798        2.3131816829
 H         -1.7294244114        0.5052081760       -2.6505410428
 H         -2.9895743521        2.2479779612       -3.8514461026
 H         -4.2859104398        3.9465339358       -2.6344747106
 H         -4.3199447886        3.9769569260       -0.1644524503
 H         -3.7961546229        3.7252906674        2.3682236661
 H         -3.1133247221        2.9883479316        4.6231813824
 H         -1.7232888214        0.9856433452        4.9248931703
 H         -0.9555154201       -0.3342497623        2.9808076059
  62
       -111.99699190
 F         -5.5633713196       -2.7523559681       -0.4598686166
 C         -4.3951053608       -2.4231872957        0.0988564992
 N         -4.0076600139       -3.1784952530        1.1141883384
 C         -2.8486389309       -2.8672264152        1.6735184408
 F         -2.4637499951       -3.6424792741        2.6926522558
 C         -2.0451546618       -1.8273073528        1.2577303531
 F         -0.8823831797       -1.5925556123        1.9045037793
 C         -2.4294986538       -1.0153404359        0.1691644129
 C         -1.6730137414        0.2498482610       -0.1719977784
 C         -0.1732419137        0.0936320270       -0.1086567549
 C          0.4234707197       -1.0577959841       -0.6369155264
 C          1.7921975381       -1.2137483656       -0.6784353128
 C          2.5789684260       -0.1826053314       -0.1769239372
 C          1.9887537117        0.9736561171        0.3882691656
 C          0.6136859075        1.1188935122        0.4006359997
 C          3.0732470063        1.7925762990        0.8623968901
 C          3.1321929493        3.0234502172        1.4964471888
 C          4.3751760363        3.5465556916        1.8091238753
 C          5.5436269287        2.8654179134        1.4818165797
 C          5.5089228238        1.6354815445        0.8485561170
 C          4.2649912469        1.0941217747        0.5580831341
 N          3.9472951915       -0.0934533127       -0.0737000531
 C          4.8673115826       -1.0271901552       -0.5708105781
 C          5.8892828787       -1.5073074988        0.2433657128
 C          6.7989851671       -2.4180500661       -0.2609764864
 C          6.6949600384       -2.8588250431       -1.5702445264
 C          5.6743920483       -2.3856298594       -2.3789692109
 C          4.7625965402       -1.4711117774       -1.8865647452
 C         -2.0034220926        0.8466269129       -1.5271238512
 C         -1.6402202738        0.4138967449       -2.7711567639
 C         -2.0869354226        1.1214854769       -3.8906602555
 C         -2.8722601888        2.2789743773       -3.7444425681
 C         -3.2249032481        2.7472894210       -2.5094043393
 C         -2.7921195334        2.0408251939       -1.3599969633
 C         -2.9887559791        2.2765325650        0.0033669815
 C         -3.7148978918        3.2807733921        0.6906026947
 C         -3.6723024127        3.3114757073        2.0541926800
 C         -2.9323415494        2.3536762881        2.7844151509
 C         -2.2431093914        1.3332136904        2.1345114782
 C         -2.2677321724        1.2806741933        0.7643293125
 C         -3.6711687361       -1.3583050884       -0.4009669312
 F         -4.1741253281       -0.6591800186       -1.4379477906
 H         -0.2094756023       -1.8529926015       -1.0029668539
 H          2.2349433585       -2.1167991428       -1.0697651084
 H          0.1563126873        2.0054106187        0.8127359937
 H          2.2270760534        3.5592754733        1.7374130683
 H          4.4430835170        4.5018774453        2.3070069988
 H          6.4986961032        3.3061091192        1.7245507931
 H          6.4206313844        1.1231581420        0.5821821933
 H          5.9508994649       -1.1802794459        1.2703566508
 H          7.5887622349       -2.7904389613        0.3737950881
 H          7.4072098237       -3.5699168094       -1.9595459868
 H          5.5922834485       -2.7239375014       -3.4008946606
 H          3.9800717026       -1.0797273506       -2.5193518728
 H         -1.0430442601       -0.4765565034       -2.9008501397
 H         -1.8399511556        0.7677324525       -4.8792571835
 H         -3.1955454413        2.8018149266       -4.6326815734
 H         -3.8142731159        3.6437871387       -2.3958370868
 H         -4.2864851071        4.0040114262        0.1295251715
 H         -4.2112673410        4.0730493535        2.5979313580
 H         -2.9155407930        2.4083353705        3.8614738149
 H         -1.6952036769        0.6034506526        2.7112943061
  62
       -111.99623609
 F         -5.3720878698       -2.8928126792       -0.3179965820
 C         -4.1958891642       -2.4789935477        0.1625762909
 N         -3.6866109761       -3.2053495613        1.1447747227
 C         -2.5182407744       -2.8079699733        1.6251759077
 F         -2.0061480454       -3.5522358311        2.6112725931
 C         -1.8234625202       -1.7126490076        1.1605724211
 F         -0.6409194478       -1.3983671193        1.7346878114
 C         -2.3357068845       -0.9325576800        0.1004759296
 C         -1.6758368999        0.3712547873       -0.3045945270
 C         -0.1703832981        0.2535187952       -0.3220445708
 C          0.4129664590       -0.8781073536       -0.9054455439
 C          1.7769234798       -1.0734048892       -0.9107003896
 C          2.5720358459       -0.1054580070       -0.3076620744
 C          1.9977799218        1.0499135575        0.2742752849
 C          0.6274897230        1.2392350163        0.2430212666
 C          3.0820499658        1.7840064171        0.8724546337
 C          3.1530839847        2.9721151226        1.5823043283
 C          4.3886234514        3.3936440918        2.0430796468
 C          5.5401730285        2.6546962607        1.7893595037
 C          5.4943951414        1.4687019452        1.0779416680
 C          4.2550350271        1.0295558688        0.6351638454
 N          3.9299579280       -0.0999350486       -0.0902493306
 C          4.8213663982       -1.0981341852       -0.5080552667
 C          5.6910330004       -1.6875966379        0.4052043951
 C          6.5582140261       -2.6793557986       -0.0136894049
 C          6.5628209957       -3.0915183190       -1.3364102443
 C          5.6967028758       -2.5056154745       -2.2452941273
 C          4.8283997889       -1.5102129716       -1.8380712289
 C         -2.1598431338        0.9383374712       -1.6255752178
 C         -1.8753455802        0.5317137153       -2.8980328223
 C         -2.4862235114        1.1882946437       -3.9716765512
 C         -3.3581456468        2.2688546047       -3.7536617986
 C         -3.6332247758        2.7150059735       -2.4907721796
 C         -3.0319056278        2.0602849858       -1.3874698054
 C         -3.1217790691        2.2918958934       -0.0122002235
 C         -3.8612094691        3.2406319484        0.7366681276
 C         -3.6900955048        3.2936466277        2.0893227975
 C         -2.8049445182        2.4102857727        2.7490657034
 C         -2.1017524059        1.4394195999        2.0417644847
 C         -2.2533778718        1.3657788961        0.6801055543
 C         -3.5869119641       -1.3649453479       -0.3819037997
 F         -4.2104542702       -0.7093528429       -1.3813595375
 H         -0.2289043390       -1.6379907726       -1.3265715872
 H          2.2060239255       -1.9683623495       -1.3340990288
 H          0.1825280744        2.1163683825        0.6872178742
 H          2.2626132749        3.5515945297        1.7711020386
 H          4.4645204674        4.3127318159        2.6040874176
 H          6.4906578327        3.0147026106        2.1530779624
 H          6.3946016121        0.9108163305        0.8700363037
 H          5.6640185927       -1.3821639814        1.4403694400
 H          7.2273689972       -3.1384508071        0.6983413816
 H          7.2392380779       -3.8683441229       -1.6581921421
 H          5.7007521736       -2.8211427343       -3.2777589218
 H          4.1656466867       -1.0350468825       -2.5458650524
 H         -1.2165339881       -0.3028172632       -3.0860528449
 H         -2.3015049239        0.8487818875       -4.9786738425
 H         -3.8114705672        2.7511113248       -4.6074189778
 H         -4.2898971557        3.5542254583       -2.3217721322
 H         -4.5427183691        3.9064077763        0.2298335092
 H         -4.2359422281        4.0150566300        2.6790279303
 H         -2.6868808466        2.4825964861        3.8187719653
 H         -1.4437273061        0.7639539990        2.5672864405
