  92
       -130.89459551
 C         -9.2812993540       -2.0889392342       -1.5547614521
 C         -7.9771089307       -1.4866260733       -1.1283022215
 C         -6.7934809914       -1.8486650858       -1.7539801321
 C         -5.5774306283       -1.2971327678       -1.3832646602
 C         -4.3400580126       -1.7591077130       -2.1002772583
 C         -5.5157757869       -0.3399506588       -0.3561735210
 B         -4.1306441446        0.3148776652        0.0142655923
 C         -3.9346772369        1.8788587483       -0.0266939731
 C         -4.2243735612        2.6437326999       -1.1671265694
 C         -4.6713339798        1.9815533088       -2.4377574659
 C         -4.0633353036        4.0207836214       -1.1492889724
 C         -3.6290914975        4.6853565536       -0.0127296959
 C         -3.4367746336        6.1715315070       -0.0110815441
 C         -3.3558076617        3.9322915950        1.1188352535
 C         -3.4982801719        2.5534258701        1.1258564888
 C         -3.1657915882        1.8126524594        2.3906069917
 N         -3.0337502653       -0.5183750958        0.3906265080
 C         -3.1053055679       -1.7806049033        0.9845007900
 C         -4.2178609412       -2.4974935046        1.3994572627
 C         -4.0178274131       -3.7265433569        2.0023768093
 C         -2.7407904741       -4.2369008232        2.2120010102
 C         -1.6255474429       -3.5173007932        1.8304978375
 C         -1.8089069120       -2.2853121376        1.2201318465
 C         -0.8900268863       -1.2922711508        0.7318792770
 C          0.4926618512       -1.2456438856        0.6717206780
 C          1.1092844687       -0.1308671018        0.1176021075
 C          2.5756520312       -0.0453415054        0.0509024242
 C          3.2216547287        1.1620537759        0.3499133896
 C          4.5944223593        1.2907915820        0.3056561005
 C          5.3414950280        0.1814466950       -0.0640223570
 C          4.7112079951       -1.0511989727       -0.3489280611
 C          3.3305535279       -1.1596045804       -0.2912838610
 C          5.7607070439       -1.9859802844       -0.6461410311
 C          5.7707035549       -3.3254829204       -1.0109008512
 C          6.9849056391       -3.9365963295       -1.2513151472
 C          8.1777084435       -3.2247422951       -1.1459564164
 C          8.1933942502       -1.8913098928       -0.7841785427
 C          6.9777836887       -1.2779188186       -0.5178019111
 N          6.7100180600        0.0309643483       -0.1670340011
 C          7.6629230972        1.0353216513        0.0511964803
 C          7.5347537060        2.2701515114       -0.5784283218
 C          8.4730046565        3.2602524971       -0.3540238012
 C          9.5485593524        3.0265649024        0.4865747292
 C          9.6807655742        1.7966564911        1.1093413450
 C          8.7414093752        0.8041964654        0.9003468001
 C          0.3169834606        0.9064344367       -0.3879316827
 C         -1.0629957975        0.8688334455       -0.3449609032
 C         -1.6759302870       -0.2275980142        0.2437933669
 C         -6.7153522800        0.0335867449        0.2684538865
 C         -6.7134465486        1.0280290923        1.3926217497
 C         -7.9171710466       -0.5422183315       -0.1157790493
 H         -9.6293058677       -1.6149661656       -2.4733147549
 H        -10.0429254020       -1.9499654039       -0.7911657279
 H         -9.1680907433       -3.1534298696       -1.7513312112
 H         -6.8197909720       -2.5818327037       -2.5487703925
 H         -4.5916604571       -2.1277633613       -3.0927992918
 H         -3.8734347858       -2.5757942640       -1.5475247821
 H         -3.6088013141       -0.9610841967       -2.1986123842
 H         -5.5417025335        1.3543626302       -2.2591866613
 H         -3.8797078742        1.3474400103       -2.8362026690
 H         -4.9230619842        2.7249998704       -3.1905217192
 H         -4.2838199425        4.5900264623       -2.0421662219
 H         -3.6772901727        6.5923860493        0.9629272128
 H         -4.0608229832        6.6454547871       -0.7652552853
 H         -2.3961005722        6.4122987575       -0.2326475769
 H         -3.0216034496        4.4318753308        2.0180891766
 H         -2.1255444867        1.4848669701        2.3663874830
 H         -3.7910707355        0.9332713594        2.5196621561
 H         -3.2919052855        2.4616235764        3.2550830802
 H         -5.2157505844       -2.1166972095        1.2570929357
 H         -4.8756532193       -4.2994686863        2.3225849358
 H         -2.6243118609       -5.1998440641        2.6869346779
 H         -0.6304628305       -3.8977137749        2.0061831133
 H          1.0825240090       -2.0585853031        1.0676669298
 H          2.6239756627        2.0106803040        0.6486198505
 H          5.0696017379        2.2247304412        0.5659723568
 H          2.8485501216       -2.0961923796       -0.5278782348
 H          4.8446987076       -3.8719040551       -1.1086672691
 H          7.0153796058       -4.9783355772       -1.5342788341
 H          9.1115825197       -3.7253726327       -1.3557504926
 H          9.1222834176       -1.3442904806       -0.7241863775
 H          6.7075122318        2.4406693201       -1.2511125154
 H          8.3680811335        4.2166815105       -0.8447296920
 H         10.2820018657        3.8004779988        0.6555630483
 H         10.5148813909        1.6118320815        1.7700660884
 H          8.8284412779       -0.1477000465        1.4027351509
 H          0.8015037918        1.7528930449       -0.8520218598
 H         -1.6398284482        1.6785719087       -0.7605018068
 H         -6.2222327725        1.9498736171        1.0896522617
 H         -6.1747942570        0.6304701887        2.2525384835
 H         -7.7297261745        1.2579182522        1.7040886653
 H         -8.8284878504       -0.2462962913        0.3859740131
