  92
       -130.79436595
 C         -9.1707660242       -1.9748052630       -2.0275952180
 C         -7.8908270727       -1.3757620402       -1.5294599557
 C         -6.6694841122       -1.7024026899       -2.0984170889
 C         -5.4824998074       -1.1602524605       -1.6326409650
 C         -4.2065909678       -1.5469475503       -2.3257496577
 C         -5.4835624023       -0.2647328925       -0.5457458257
 B         -4.1482143867        0.3287323855        0.0155764574
 C         -3.9592852216        1.8557100073        0.3038180434
 C         -4.3347911432        2.8317267115       -0.6432664895
 C         -4.9246342020        2.4320716647       -1.9649544860
 C         -4.1303058626        4.1744643629       -0.3841454810
 C         -3.5719283381        4.6106290485        0.8117910738
 C         -3.3574563673        6.0721357059        1.0636812945
 C         -3.2201721859        3.6551496200        1.7525083002
 C         -3.4114787221        2.3023657579        1.5222193443
 C         -3.0321292466        1.3400018026        2.6121247423
 N         -3.0353271290       -0.5633438093        0.2781967781
 C         -3.1224963639       -1.8655755023        0.7740381878
 C         -4.2488802472       -2.5862763196        1.1303103899
 C         -4.0738708816       -3.8732224632        1.6210121781
 C         -2.8084827055       -4.4250721484        1.7681741004
 C         -1.6743221602       -3.6994730716        1.4392923131
 C         -1.8303203825       -2.4134949273        0.9487487334
 C         -0.9004364760       -1.3952683833        0.5345704816
 C          0.4642608442       -1.3363449787        0.4918723168
 C          1.1131719823       -0.1575689125        0.0387116259
 C          2.5346438971       -0.0556894872        0.0069513218
 C          3.1823605422        1.2197489404       -0.0185485611
 C          4.5410764581        1.3631144485       -0.0724935130
 C          5.3319438643        0.2105576090       -0.1260530490
 C          4.7256110004       -1.0768436170       -0.0563683006
 C          3.3622545069       -1.2095461430        0.0118006302
 C          5.8076505004       -2.0290043494       -0.0741959181
 C          5.8567247040       -3.4135275762       -0.0486704147
 C          7.0940211083       -4.0345481768       -0.1094476941
 C          8.2628211116       -3.2905043345       -0.2107711651
 C          8.2376974334       -1.9046345396       -0.2363299342
 C          7.0041770524       -1.2792774604       -0.1476598531
 N          6.6963645956        0.0720206984       -0.1778294102
 C          7.6193632880        1.1154881450       -0.2984568913
 C          7.4249383604        2.1135564905       -1.2538484060
 C          8.3366941353        3.1434777205       -1.3707212205
 C          9.4504497408        3.1911253034       -0.5455276875
 C          9.6451305404        2.2002089075        0.4048416295
 C          8.7371266364        1.1680742196        0.5347382788
 C          0.2797459207        0.9249704831       -0.4068973237
 C         -1.0831319733        0.8704445175       -0.3802137095
 C         -1.7067430370       -0.2800908574        0.1280819117
 C         -6.7297706308        0.0840908564        0.0153963348
 C         -6.8122846071        1.0363884641        1.1732639049
 C         -7.8975880390       -0.4752357727       -0.4707793045
 H         -9.9404408559       -1.2111352940       -2.1275754751
 H         -9.5346392406       -2.7231579651       -1.3222215069
 H         -9.0260875377       -2.4568217116       -2.9915871371
 H         -6.6418339023       -2.3909762160       -2.9323844947
 H         -3.4961982175       -0.7234508441       -2.3419187022
 H         -4.4097049762       -1.8522762744       -3.3507047748
 H         -3.7357652491       -2.3881369730       -1.8148390262
 H         -4.9719680238        3.2861661521       -2.6373282686
 H         -5.9324934915        2.0414030387       -1.8340400145
 H         -4.3304310637        1.6503916866       -2.4341917806
 H         -4.4117419423        4.9069283652       -1.1292306754
 H         -4.2401739402        6.6447858533        0.7825355417
 H         -2.5201812404        6.4377592074        0.4675087802
 H         -3.1369407018        6.2584751124        2.1123419418
 H         -2.7944671933        3.9727651750        2.6951181361
 H         -3.0779195233        1.8303298940        3.5827764026
 H         -2.0113875679        0.9827511519        2.4666106451
 H         -3.6909256800        0.4741567706        2.6282725671
 H         -5.2364576585       -2.1670893801        1.0251069722
 H         -4.9419711821       -4.4524922360        1.8979861844
 H         -2.7077121294       -5.4293594437        2.1525094909
 H         -0.6896155875       -4.1242725503        1.5647802805
 H          1.0427443965       -2.1757232057        0.8444040803
 H          2.5761284763        2.1075713454        0.0601216549
 H          4.9943616725        2.3431441521       -0.0534117629
 H          2.9267709419       -2.1954318853        0.0281669193
 H          4.9485925823       -3.9937248281        0.0106329324
 H          7.1525890787       -5.1125292038       -0.0895810686
 H          9.2125401695       -3.8003618071       -0.2752254526
 H          9.1505033257       -1.3375572999       -0.3358933055
 H          6.5701900742        2.0588597679       -1.9113045307
 H          8.1832588338        3.9101654086       -2.1156151341
 H         10.1622126103        3.9964978994       -0.6421895735
 H         10.5066372615        2.2379037517        1.0549920232
 H          8.8713542697        0.4115991451        1.2932992192
 H          0.7513318678        1.7964878157       -0.8309991576
 H         -1.6759438381        1.6945580392       -0.7445402313
 H         -7.8099142440        1.0263098042        1.6071415671
 H         -6.5883267468        2.0521775360        0.8509537731
 H         -6.0921108046        0.7732929478        1.9453689357
 H         -8.8423322578       -0.2074926476       -0.0163829964
