92
 energy: -130.894524884927 gnorm: 0.000074663562 xtb: 6.7.1 (edcfbbe)
C           -8.43485597895480       -1.91392254526587       -2.99470180249953
C           -7.22424378911451       -1.45339777762649       -2.24116629144689
C           -5.96650418763180       -1.49595893017944       -2.82232039148715
C           -4.83793588824161       -1.05870351968102       -2.14617491203248
C           -3.51168535861062       -1.15450597968417       -2.84686512688612
C           -4.94568237141453       -0.54955305440147       -0.84134713955886
B           -3.65934279260273       -0.00395080859846       -0.11146585008458
C           -3.61052513535166        1.47054839544351        0.44260443466621
C           -3.90028288799714        2.58511800993278       -0.35953244475304
C           -4.17507488484040        2.41939204721972       -1.82567267337812
C           -3.89909042219969        3.86095229188543        0.18320059172085
C           -3.62716568357375        4.07751910327114        1.52532085178550
C           -3.65932980927366        5.45715698187281        2.10931953829492
C           -3.34556212362163        2.97674138864177        2.31994126810448
C           -3.32976683996549        1.69126704889726        1.80144264190606
C           -2.99598104577996        0.55545144247167        2.72717355335131
N           -2.52506064144905       -0.85782929548145        0.04053163026524
C           -2.53253144463082       -2.25249612412538        0.10606606580584
C           -3.60961877904408       -3.12519716476157        0.15042863577552
C           -3.35021763202046       -4.48028376467611        0.25224564178291
C           -2.05027607436299       -4.97013323406485        0.32787072016885
C           -0.97206561764434       -4.10722502766858        0.31534929889268
C           -1.21467362655902       -2.74565670543516        0.20902655698026
C           -0.34835795029901       -1.59752620589769        0.19163985558718
C            1.02960343342353       -1.46441876779182        0.21572380502638
C            1.58949909417856       -0.19478942592116        0.14297672419116
C            3.05077209276757       -0.03140843494452        0.13845885989360
C            3.65079702726461        0.89312552504333       -0.72753911523820
C            5.01893852075720        1.05684727728130       -0.79303055175239
C            5.80972160456892        0.26853293757978        0.03064266866240
C            5.22365353335182       -0.64606287538559        0.93502138278590
C            3.84653427086615       -0.79784560792081        0.98004884720359
C            6.30592318853501       -1.25100799207573        1.66036883062858
C            6.36636668051071       -2.22070562491522        2.65220425440696
C            7.60429517052308       -2.60562192118289        3.12660543297889
C            8.77292935387726       -2.04747726991655        2.61329213152614
C            8.73851925448368       -1.08096414066096        1.62637937035194
C            7.49630599596951       -0.67210580587792        1.16297922107045
N            7.18189140220117        0.24442903251379        0.17893623321806
C            8.09802062052063        1.00749030396625       -0.55766094526191
C            8.02619144772638        1.03411084942967       -1.94768566376499
C            8.92737725371786        1.79245091149228       -2.67132599118516
C            9.91058482382922        2.51907733024548       -2.02047855693347
C            9.98700175445692        2.48917777180317       -0.63791320716379
C            9.08346482807465        1.74242201707322        0.09512912264140
C            0.74637161165420        0.91850489120961        0.04889895275976
C           -0.62976217102504        0.80149922441049        0.02280735055042
C           -1.18667966470579       -0.46620621226520        0.10579360173371
C           -6.22101652388615       -0.49765287416803       -0.25771215907150
C           -6.39818506796924        0.01088854485320        1.14331436044644
C           -7.33129452368278       -0.95059615387605       -0.95335094556453
H           -8.83787540338739       -1.09303652359065       -3.58942953030977
H           -9.21307048780775       -2.24941088121431       -2.31292723970688
H           -8.18300038327821       -2.72681630148258       -3.67245142382058
H           -5.86162351714000       -1.88184999712878       -3.82731497889095
H           -3.02323925544577       -2.09603365396408       -2.59173402612381
H           -2.84514442749991       -0.34428962503201       -2.56352253384279
H           -3.65051297722989       -1.13183895342157       -3.92601628348336
H           -5.00526137484168        1.73489465934883       -1.98568500542623
H           -3.30309032952694        2.00892286921087       -2.33375784807987
H           -4.41728536094387        3.37632462224161       -2.28213678299782
H           -4.11783724872037        4.70665783352183       -0.45459330712912
H           -4.63792370417654        5.65223265178849        2.54999793931869
H           -3.47824659345788        6.20820004515465        1.34381309485098
H           -2.91220935246523        5.56305913264403        2.89316557917077
H           -3.13084597316242        3.12440254673088        3.36969446568375
H           -3.54819836158695       -0.34607549806916        2.47504861455698
H           -3.21951506028985        0.82629860887241        3.75715030977038
H           -1.93143414752715        0.32579089772218        2.66395868745420
H           -4.62458167230438       -2.76617213361100        0.10359053998392
H           -4.17881648612341       -5.17259839106305        0.27921932635537
H           -1.88728518466135       -6.03480540539446        0.40730702574891
H            0.03900958904492       -4.47829974245912        0.39156601114882
H            1.66044981286892       -2.33964811895740        0.25767468025229
H            3.02088397777259        1.48074304392275       -1.37887613519734
H            5.45636199050204        1.78203284832525       -1.46280203153071
H            3.39792637066017       -1.48839830763855        1.67830031331543
H            5.46089589152660       -2.66427459618158        3.03820714083554
H            7.67363728133845       -3.35643968587824        3.89971131722143
H            9.72797064365776       -2.38032989099180        2.99248895340794
H            9.65073124915197       -0.66826139255469        1.22236528795524
H            7.27237174042028        0.44840284641258       -2.45236277556266
H            8.86672760877958        1.80910363612411       -3.74954354820846
H           10.61519714507156        3.10691278804978       -2.58913304206642
H           10.74946456919690        3.05766627098460       -0.12613324033705
H            9.12579781653150        1.73478240994854        1.17407976712031
H            1.18629686183519        1.90403722219237        0.00743739983744
H           -1.24763053986746        1.68084810460562       -0.05830807617180
H           -5.86272550554923       -0.62140928960343        1.85079950484623
H           -7.44996911937403        0.01787418335796        1.41975546368715
H           -6.00462573186683        1.02071281270469        1.23732421927602
H           -8.30376939683171       -0.90941172733592       -0.48172949991175
