92
 energy: -130.796722933368 gnorm: 0.000066256971 xtb: 6.7.1 (edcfbbe)
C           -9.19108067686966       -2.17090612434304       -1.73447931237956
C           -7.90723365878980       -1.54435196496314       -1.28164771217134
C           -6.69207701699163       -1.92608813591353       -1.83012163081456
C           -5.50054499698052       -1.33898430284617       -1.43673884249427
C           -4.23167096465928       -1.80004871957236       -2.09714736279179
C           -5.49087957909536       -0.33501520972131       -0.45029376721524
B           -4.14985252966473        0.32946762738710        0.01668667400967
C           -3.96702102923592        1.88316947019653        0.10234647188091
C           -4.35790214743540        2.72602487387377       -0.95826611792567
C           -4.96025735658397        2.15657806354570       -2.21024413500226
C           -4.16249308009616        4.09300067103296       -0.87642662317221
C           -3.59654547046466        4.68303955725778        0.24696686503972
C           -3.38229303464215        6.16510714298899        0.30428572931562
C           -3.23086259763406        3.85942453898179        1.30025316400733
C           -3.41259220276599        2.48663753374794        1.24714856877165
C           -3.01294586563258        1.67447881318582        2.44666442826644
N           -3.02920946367101       -0.51969487657141        0.36867386737774
C           -3.10766901644333       -1.76799919674401        0.99237048664282
C           -4.22694734046416       -2.44878524259474        1.43816905093883
C           -4.04246843805713       -3.67993222617531        2.05274180138611
C           -2.77496373139841       -4.21542780489702        2.23433212825729
C           -1.64748255594847       -3.52652732780062        1.81574673068907
C           -1.81376601893835       -2.29717611277311        1.20047679484208
C           -0.88928947693682       -1.32524020725716        0.67501458053454
C            0.47232194796636       -1.27870923559255        0.60318416333407
C            1.11992121972467       -0.14191948945507        0.03900333015465
C            2.53566509204707       -0.04942433869155       -0.01975077515915
C            3.19189457255372        1.21743199428719       -0.14816832442492
C            4.54967571120093        1.34952082588043       -0.20947286060207
C            5.33652089036874        0.19050156695698       -0.17801301248605
C            4.72314099547570       -1.08528272280663       -0.02357076374712
C            3.36125106100059       -1.20751706227382        0.06383262196340
C            5.80053296700671       -2.04379397082916        0.01557269484263
C            5.84104030467379       -3.42393683655422        0.12122821209270
C            7.07416185145783       -4.05530314170344        0.09510004351605
C            8.24739882259817       -3.32488197342417       -0.05035376055341
C            8.23075838665459       -1.94377908917065       -0.15640581260906
C            7.00069845371450       -1.30645549887924       -0.10329383737380
N            6.70085083960591        0.04157478715314       -0.21664367123283
C            7.63421593551460        1.07251496973758       -0.36587224614571
C            7.46917970061754        2.02935046166620       -1.36694710846331
C            8.39043939582155        3.04887119429824       -1.50466527277484
C            9.48436772853183        3.12495435493292       -0.65605150751570
C            9.65099782459626        2.17337632488707        0.33847210510233
C            8.73280617500509        1.15303644492239        0.48976871029635
C            0.27755123488129        0.90232878685480       -0.48618545311812
C           -1.08265245894584        0.84977810016868       -0.44181418660668
C           -1.70251027248379       -0.25118724281577        0.17757685353021
C           -6.72878435275404        0.06452185775251        0.09061532436846
C           -6.79565248131444        1.12793785377167        1.14863653288639
C           -7.90299442795451       -0.54203255060829       -0.32073655754157
H           -9.62422486687937       -1.58947936008342       -2.54988162695313
H           -9.91546395956962       -2.20062835781039       -0.92310399252709
H           -9.02270875746442       -3.18316773800036       -2.09566309091371
H           -6.67443945288810       -2.69797413752074       -2.58802151631966
H           -4.44526903388646       -2.21378707045303       -3.08093513245242
H           -3.75657378838661       -2.58192493792762       -1.50274644514363
H           -3.52021940928614       -0.98488154818059       -2.20902214100669
H           -5.96288057972649        1.77908051630580       -2.01581004225060
H           -4.36553889531709        1.32589210638185       -2.58458902646167
H           -5.02389496611170        2.91757736942379       -2.98520489827445
H           -4.45738247313629        4.72097729902465       -1.70676874560023
H           -3.22435996130379        6.49646043019097        1.32800445484951
H           -4.23804818001414        6.69523972225347       -0.11015131937686
H           -2.50421750887273        6.43988759271891       -0.28201471779872
H           -2.79931471179414        4.29882386620768        2.18981759204404
H           -1.98930800493911        1.31279053610728        2.33734628071769
H           -3.66098778812810        0.81057293845676        2.57849566817940
H           -3.05662013950414        2.28346341198854        3.34772150893459
H           -5.21689891520942       -2.04264242390964        1.30856949025552
H           -4.90566589964093       -4.22770298487136        2.40022522115239
H           -2.66677725518986       -5.17592328647360        2.71617774963181
H           -0.66000669225301       -3.93561837699658        1.96834242929523
H            1.05552899286909       -2.08459293203986        1.01966996371883
H            2.58905216585442        2.11122209550231       -0.13849671301432
H            5.00818314780310        2.32588015365736       -0.26079186756629
H            2.92014595689567       -2.18694453465328        0.15104881613556
H            4.92929212094389       -3.99405986602615        0.21429243728507
H            7.12639382543807       -5.13062588243429        0.17683838516290
H            9.19378176279982       -3.84373356175036       -0.08644238886508
H            9.14654335626221       -1.38855687284500       -0.29015937556156
H            6.62989479096537        1.95237596618147       -2.04183015514230
H            8.25923535135306        3.78508942734909       -2.28376878451584
H           10.20293466665272        3.92228175468454       -0.76858793579111
H           10.49752083918665        2.23274631650057        1.00644834910707
H            8.84465333797376        0.42733664720581        1.28140194116979
H            0.74551089358644        1.73259952609792       -0.98992995920770
H           -1.68010263728485        1.63699363261991       -0.87381708011342
H           -6.55364081128962        2.10250761507847        0.72759899046945
H           -6.08054665901931        0.92971626704458        1.94460008815472
H           -7.79322469886674        1.17778694528489        1.57992042188273
H           -8.84149010034035       -0.23006145306120        0.11814496394559
