92
 energy: -130.796787337268 gnorm: 0.000065249436 xtb: 6.7.1 (edcfbbe)
C           -9.18652603797970       -1.93084859958185       -2.04650270303349
C           -7.90273349131100       -1.35335343803037       -1.53241259334670
C           -6.68393678625501       -1.67289507315867       -2.10946088644490
C           -5.49330755028135       -1.14915981266686       -1.63047587363883
C           -4.21902125372234       -1.53279479601463       -2.32889723746226
C           -5.48999134255990       -0.27660648255374       -0.52690597707335
B           -4.15139670625116        0.32315639818327        0.02664481584620
C           -3.96390917029120        1.85471057805772        0.30136545501927
C           -4.34106044892274        2.82204542234589       -0.65237063535773
C           -4.92995331352283        2.41092563282854       -1.97102338090872
C           -4.14442219996083        4.16811003219217       -0.40184750011893
C           -3.58935398513958        4.61444733378007        0.79126176153024
C           -3.37737119181224        6.07842011433816        1.03146472563083
C           -3.23602736373817        3.66721844350576        1.73903557621425
C           -3.41935283748598        2.31149321486437        1.51615394223810
C           -3.03206395178792        1.35804757795647        2.61126683188124
N           -3.03442764359736       -0.56367097153984        0.28357028869643
C           -3.11625154936847       -1.87353379884237        0.76353797008907
C           -4.23904142364266       -2.60297845651428        1.11358100203095
C           -4.05782925181284       -3.89312774840084        1.59258270578593
C           -2.79053340571505       -4.44078373186013        1.73525831918125
C           -1.66027527254071       -3.70659547186841        1.41191070840529
C           -1.82319082639326       -2.41827650929261        0.93165725523371
C           -0.89527297272947       -1.39224636590377        0.52696831733027
C            0.46656401382916       -1.33618079857239        0.47669715053908
C            1.11976419721638       -0.14601085536653        0.03711097471872
C            2.53385635951807       -0.04570165666676       -0.00095933499994
C            3.18925156533938        1.22890734856163       -0.05044292852260
C            4.54579414903597        1.36880075994723       -0.10453278352737
C            5.33737220365419        0.21236725275606       -0.13830487561579
C            4.72808440991112       -1.07146331787644       -0.05030704448038
C            3.36685979421813       -1.20399175287982        0.02332622326796
C            5.80978072943922       -2.02661810238223       -0.05545183417793
C            5.85574386738072       -3.40981225200562       -0.01511621974594
C            7.09146297265324       -4.03455384236063       -0.06808449429418
C            8.26194929370207       -3.29342872514888       -0.17675528119750
C            8.23988697629853       -1.90906254334259       -0.21778187647935
C            7.00724184212760       -1.27966982613716       -0.13664023071455
N            6.70205319929619        0.07111859618596       -0.18427600917007
C            7.62927499328984        1.11169605345052       -0.30031653458177
C            7.44866004297640        2.10637186186672       -1.26115653123002
C            8.36450400794263        3.13407008492434       -1.37031813878545
C            9.46842835433461        3.18131995990931       -0.53259555023818
C            9.64986171216707        2.19300505298438        0.42267936830908
C            8.73715304525414        1.16381865663915        0.54536826101153
C            0.27664313703121        0.94363431771374       -0.38831941421586
C           -1.08318288648518        0.88636576810614       -0.35843528804288
C           -1.70645270287524       -0.27373656467595        0.13826354654385
C           -6.73204243673966        0.05831263676906        0.04805548119009
C           -6.80422556108402        0.98000640418093        1.23125575446786
C           -7.90412077825024       -0.48228602913505       -0.45005287547758
H           -9.94677554170017       -1.15682159541386       -2.13917210387045
H           -9.56303585530879       -2.68563247604241       -1.35496438157771
H           -9.04170052865741       -2.39918540337837       -3.01717270548777
H           -6.66035705112721       -2.34168512886820       -2.95957476678125
H           -3.50444252214583       -0.71274979418053       -2.33624681780571
H           -4.42353948653126       -1.82607659968012       -3.35688464553696
H           -3.75187007861432       -2.38130761155474       -1.82675176777326
H           -4.99068039421404        3.26232624304474       -2.64564699368988
H           -5.93218172538721        2.00803753717217       -1.83429549938889
H           -4.32773517236032        1.63584329338044       -2.44067841856382
H           -4.42919347519537        4.89411801276633       -1.15190231206080
H           -4.26173509752940        6.64701974982242        0.74808627201858
H           -2.54239432438160        6.44091244819478        0.43048235293663
H           -3.15465591846875        6.27319923191627        2.07788873806069
H           -2.81245947535126        3.99266910080991        2.67993565918491
H           -3.08193450396112        1.85316730234070        3.57927693941121
H           -2.00830889585463        1.00905678889852        2.46713475739545
H           -3.68314930544321        0.48668234028168        2.63206400941794
H           -5.22876861249483       -2.18811306694967        1.01258899879785
H           -4.92347338793794       -4.47885409317187        1.86383906418317
H           -2.68489866422266       -5.44770849802281        2.11123198755000
H           -0.67331095466893       -4.12688433039261        1.53443858462962
H            1.04494072428098       -2.18210976714707        0.81182159856394
H            2.58601035794189        2.12007956658925        0.01137263968046
H            5.00117224266786        2.34802126343117       -0.10027592984635
H            2.93248672882628       -2.18938894986005        0.05795113073304
H            4.94620256047797       -3.98737040881468        0.04939821126139
H            7.14789899085098       -5.11229123826233       -0.03639999091531
H            9.21052642953665       -3.80624440721864       -0.23507646521016
H            9.15371216410623       -1.34468807551031       -0.32352801926061
H            6.60138410157968        2.05218750576013       -1.92825940982639
H            8.22139025142372        3.89917846154943       -2.11889029303321
H           10.18319730262982        3.98483653235214       -0.62317388131955
H           10.50402612034581        2.23005464074901        1.08248843647589
H            8.86090837635734        0.40898317899882        1.30740336059170
H            0.74392079540090        1.82224873967553       -0.80224224764152
H           -1.67855338521105        1.71356570027183       -0.71134247487875
H           -7.80755069846208        0.98646933784725        1.65183923313236
H           -6.54589051027028        1.99701128397991        0.94059020474605
H           -6.10321609944349        0.67368873614293        2.00525239510032
H           -8.84684443025231       -0.22171042799792        0.01264401784294
