81
 energy: -125.471744445548 gnorm: 0.000141508599 xtb: 6.7.1 (edcfbbe)
Br          -5.01915188774904        4.52476379119003       -0.52479594436561
C           -3.99854372650817        3.21628324856397        0.41604173519016
C           -3.23411363932242        3.60581080545444        1.50513462652741
C           -2.49680396574472        2.64044028623305        2.17723302644799
C           -2.53516368413895        1.31951056635668        1.78290876586639
C           -3.31221422710231        0.93985162106976        0.68236772244791
N           -3.39510468730541       -0.39681312150057        0.30519356684270
C           -2.34443595807013       -1.31479816433131        0.13457061582225
C           -0.96925028769031       -1.05633713213859        0.09832271766672
C           -0.08011639688738       -2.17627816513852        0.11766007814872
C            1.26572911902267       -2.01792440382438        0.08654193178935
C            1.87253681815493       -0.72827989517271        0.02238529782878
C            3.28726183901236       -0.55453867646521        0.00820912120774
C            3.89241053060190        0.68203019258920        0.34801328400252
C            5.24875777888343        0.85471128859271        0.32713895267179
C            6.10390882398037       -0.19854470071296       -0.03704018443080
N            7.48233484786151       -0.02130107897601       -0.06728879440252
C            8.02220068577198        1.20986114793249       -0.45260619284963
C            7.42107475606323        1.95823055454607       -1.46617256541271
C            7.95468900867522        3.17571050633734       -1.83915503850043
C            9.09262595602990        3.66405104660021       -1.21653917049086
C            9.69507982773156        2.92303468769172       -0.21203904406445
C            9.16708692729899        1.70667337622023        0.17269525259016
C            8.33371048513198       -1.07428300123318        0.28177442820378
C            7.99097809662649       -1.94557513703973        1.31716882462337
C            8.83280137999841       -2.98639062388879        1.65512346187251
C           10.02586517543140       -3.17382518706605        0.97505623635962
C           10.37176164126116       -2.30972745998341       -0.05196140572086
C            9.53525453247854       -1.26849277266469       -0.40173252814180
C            5.52663477702772       -1.43475258692454       -0.37155646730329
C            4.17005974180308       -1.60526055018924       -0.34780948152587
C            0.98046786320645        0.37915122171966       -0.05669529267254
C           -0.36972276620145        0.23211116694755       -0.02809040462513
N           -2.84889822574797       -2.53654414787810       -0.10823013119421
C           -4.17321595686154       -2.42878871479232       -0.15805885814992
C           -5.00885799310551       -3.59628320278154       -0.38482368789757
C           -6.27938930672685       -3.72089827375176        0.17685184906364
C           -7.03303504612728       -4.85526437483074       -0.05676702512504
C           -6.53304750244640       -5.87888870997984       -0.84553366437861
C           -5.26260590496712       -5.77156340715036       -1.38941941379758
C           -4.50297687639484       -4.64226375783903       -1.15781841632902
C           -4.56757938162094       -1.09130279587262        0.08779254292732
C           -5.88744287830460       -0.51192208587080        0.14420410963012
C           -6.82675570526666       -0.83132428877118       -0.84542522860755
C           -8.08671561006995       -0.27175696236455       -0.82115963472008
C           -8.44244777232826        0.61186424846912        0.18782608270823
C           -7.52790083565546        0.92119145305649        1.18299167062511
C           -6.26303107053904        0.37014284341838        1.16586938588847
C           -4.04577298524351        1.90681844966521       -0.01157720078661
H           -3.21674827099689        4.63661806174104        1.82025784780849
H           -1.89850890309477        2.92794806620135        3.02823870102588
H           -1.97540745713360        0.56772852435753        2.31797496034103
H           -0.52693171515425       -3.15533500306202        0.18541916147356
H            1.89463244106532       -2.89217411005084        0.15373568500395
H            3.27386358182983        1.50195760298337        0.67735639476661
H            5.67872920891453        1.80267303668632        0.61775582101822
H            6.54283053891030        1.57093587243299       -1.96123959232279
H            7.48362195705910        3.74368944701139       -2.62753190840331
H            9.50744530192462        4.61536187239443       -1.51241555721407
H           10.57877355089223        3.29934987205749        0.28151823916820
H            9.62987847334002        1.13604872815834        0.96451113043824
H            7.06797794910894       -1.79094398049607        1.85621783333918
H            8.55952579599968       -3.65129984409839        2.46089285236568
H           10.68180600581740       -3.98759176990119        1.24366105402877
H           11.29675122630968       -2.45284159593373       -0.59051516265007
H            9.79949764879992       -0.60358103640674       -1.21093191728920
H            6.16920833049476       -2.24786178410355       -0.67778428389939
H            3.76566152348611       -2.55582701586571       -0.65704720271245
H            1.38671764818577        1.36891581892913       -0.20147891630426
H           -0.99532919385922        1.10043961200177       -0.16343306880268
H           -6.66780291735709       -2.93871287823424        0.81163510769502
H           -8.01576802116043       -4.94345456078016        0.38335170058988
H           -7.12900856636610       -6.76093618771945       -1.02880027335556
H           -4.86568515733080       -6.57263585720774       -1.99594688092250
H           -3.51101668649883       -4.54317583793021       -1.57064034502974
H           -6.54451435655090       -1.50697438407538       -1.63951968333680
H           -8.79570146726282       -0.51795087930061       -1.59785627589002
H           -9.42695563954159        1.05414089236633        0.20006067157786
H           -7.80421820659615        1.59684452910797        1.97924333813983
H           -5.56803644841882        0.59576145625103        1.96187741166126
H           -4.63371824512718        1.62870321654844       -0.87227659052120
