81
 energy: -125.552118148888 gnorm: 0.000029787744 xtb: 6.7.1 (edcfbbe)
Br          -1.17178366547341        3.22408176867617       -3.47064600315038
C           -2.43833387797452        3.05777664327204       -2.05837486822796
C           -2.97955534996872        4.19852649005934       -1.48864559514480
C           -3.89366935877445        4.06167776560988       -0.45815139665643
C           -4.25482095916200        2.80925720741380        0.00415511047611
C           -3.70509788539748        1.67219929288356       -0.58093960241670
N           -4.05368924005647        0.39502557972200       -0.12534929165043
C           -3.19662775129682       -0.62874447122513        0.20526962885352
C           -1.74705911623447       -0.52784853966375        0.21103548650702
C           -0.99541357046297       -1.63911523719194       -0.16964283880569
C            0.38155313851163       -1.57979578080558       -0.18677320552742
C            1.05254973671270       -0.41549503436267        0.18800947466339
C            2.51723496431298       -0.34992026408595        0.15985465551324
C            3.23981305532500       -0.93678293059900       -0.87850976257059
C            4.61584022292225       -0.87042817703947       -0.91483499105397
C            5.32104981274785       -0.22507384653157        0.10227886057968
N            6.71512955425148       -0.16113714560769        0.07375836531395
C            7.37539878250794        0.97812631534803        0.55004662381152
C            6.84448828096535        2.24858224402075        0.32842779020314
C            7.49885005187017        3.36838306275126        0.80343678488736
C            8.69183159703267        3.24355849382924        1.49641005201759
C            9.22599469224614        1.98418113859681        1.71465589370548
C            8.57497734980220        0.85766244108631        1.25099953931165
C            7.45874933571600       -1.23462395317714       -0.43141570989461
C            8.61471222258934       -1.00370991707384       -1.17661057123502
C            9.34994184711634       -2.06513113539601       -1.66710386360757
C            8.94392147041864       -3.36856823922944       -1.43216402369775
C            7.79420533467063       -3.60323960278852       -0.69593254567043
C            7.05671226494935       -2.54874723774701       -0.19392321575303
C            4.60343467416937        0.35576482675896        1.14921686560964
C            3.22662731094367        0.29972949516310        1.16939344730982
C            0.29648668054612        0.68130057358870        0.59981964108119
C           -1.08184112019494        0.62948200534333        0.61383072172580
N           -3.85982754694844       -1.69888826176679        0.55350350989692
C           -5.18670601192504       -1.40053585755831        0.46218185546736
C           -6.19296023774618       -2.41029773826647        0.75423106380650
C           -5.86656333430579       -3.45404619493438        1.61904929974921
C           -6.79550144768022       -4.43131229544258        1.91816580498747
C           -8.06057310902986       -4.38476833524268        1.35509726683335
C           -8.38586641345874       -3.36135775831812        0.48000480921330
C           -7.46030123807253       -2.38103017865415        0.17579600998792
C           -5.33561523235784       -0.08831457038101        0.04859460785506
C           -6.52241093209427        0.72089718647138       -0.19380530457891
C           -6.66906748812622        1.44423052517390       -1.37617118158975
C           -7.79619169725118        2.21665983704717       -1.58592846317071
C           -8.78896505246901        2.27781660694534       -0.62263340657895
C           -8.65357857748405        1.55627307945018        0.55284832582149
C           -7.52903190876005        0.78387433118417        0.76931145406341
C           -2.79651678890312        1.79493007622523       -1.62843987681782
H           -2.68926010000974        5.17424547711495       -1.84488946714117
H           -4.32180328942523        4.94267863922562       -0.00564598132304
H           -4.95508657641301        2.70654568002439        0.81857576476188
H           -1.51538025162228       -2.54175450705924       -0.45093706423360
H            0.95038749853665       -2.45102803190416       -0.47616919870996
H            2.71235782678241       -1.42223777249146       -1.68633999817465
H            5.15768245904536       -1.31268965358271       -1.73796556782592
H            5.92010045006851        2.34921354410120       -0.22135593090826
H            7.07811887364187        4.34669552162846        0.62274135445344
H            9.20189015803516        4.12132756268583        1.86316643307020
H           10.15332105723732        1.87672460599505        2.25799750262134
H            8.98872817148931       -0.12397334242741        1.43031187832099
H            8.92812926802761        0.01199489761483       -1.36906714314931
H           10.24217505564643       -1.87226030055930       -2.24451615343566
H            9.51947423816240       -4.19538594515461       -1.81974097879323
H            7.47316476343000       -4.61631773504463       -0.50269409434102
H            6.16657106864826       -2.73454119947707        0.38922731372373
H            5.13716904152044        0.84569850248214        1.95047405388095
H            2.69205621869890        0.73720511632696        1.99979358825641
H            0.79632715376640        1.59181862606002        0.89636353028964
H           -1.64239639731567        1.48767141418463        0.95693588743993
H           -4.87558657104765       -3.47864407524870        2.04522194621312
H           -6.53422435864190       -5.23359122119812        2.59313252842403
H           -8.78860325885227       -5.14723125640959        1.59091714296656
H           -9.36635387282963       -3.32944681052271        0.02685388655559
H           -7.71615255925494       -1.59811175582076       -0.52261613349800
H           -5.90585250631238        1.38721125262552       -2.13949311793174
H           -7.90063721775354        2.77020885000973       -2.50755954469892
H           -9.66777202118416        2.88277716502352       -0.78877637019065
H           -9.42680390584345        1.59890126959171        1.30567598475968
H           -7.41833959398202        0.22139630063059        1.68484135272779
H           -2.37533229090791        0.91380989808399       -2.08785263558534
