  81
       -125.46932563
 Br        -4.9742360982        4.5302327039       -0.5001884192
 C         -3.9702294024        3.2091916726        0.4411744404
 C         -3.2111950866        3.5872542647        1.5382606835
 C         -2.4853701719        2.6125770127        2.2100217670
 C         -2.5307763259        1.2943673520        1.8082624963
 C         -3.3037071555        0.9261585738        0.7005456872
 N         -3.3931050577       -0.4083119655        0.3169424417
 C         -2.3463036667       -1.3322384995        0.1571935384
 C         -0.9691486972       -1.0750893480        0.1235728860
 C         -0.0802655283       -2.1930140233        0.1501483879
 C          1.2662860107       -2.0335453654        0.1140166642
 C          1.8704916373       -0.7443580607        0.0392600530
 C          3.2843041240       -0.5670776656        0.0199087094
 C          3.8864292316        0.6727537314        0.3557063234
 C          5.2414059678        0.8510811659        0.3273063260
 C          6.0993629227       -0.1994473036       -0.0403869340
 N          7.4763125226       -0.0157239151       -0.0774730379
 C          8.0072412758        1.2183434192       -0.4653283273
 C          7.3975778344        1.9622726574       -1.4774463766
 C          7.9213032331        3.1833404257       -1.8522615702
 C          9.0576061470        3.6801355475       -1.2329129925
 C          9.6682620078        2.9438881960       -0.2296772407
 C          9.1501980375        1.7239162295        0.1569943405
 C          8.3342676147       -1.0629553576        0.2709724993
 C          7.9961924166       -1.9381738064        1.3049598426
 C          8.8436560873       -2.9746540397        1.6414483344
 C         10.0381622648       -3.1540834955        0.9615940954
 C         10.3799670594       -2.2856792584       -0.0633211935
 C          9.5378486786       -1.2487094304       -0.4118248503
 C          5.5251865494       -1.4391794539       -0.3699397439
 C          4.1698170169       -1.6154108952       -0.3384334922
 C          0.9777661193        0.3610044891       -0.0447086716
 C         -0.3727763812        0.2121540605       -0.0121395364
 N         -2.8534140929       -2.5510016671       -0.0844805323
 C         -4.1783514775       -2.4367213822       -0.1460485783
 C         -5.0152107947       -3.6031466693       -0.3701185906
 C         -6.3016648444       -3.7101440745        0.1587557446
 C         -7.0535526007       -4.8466917786       -0.0696719258
 C         -6.5364530642       -5.8906493488       -0.8199480365
 C         -5.2508543794       -5.8008059390       -1.3307885126
 C         -4.4932334523       -4.6692507617       -1.1047553297
 C         -4.5667272031       -1.0963360996        0.0901919430
 C         -5.8822211311       -0.5059742100        0.1239301659
 C         -6.8058754403       -0.8165428376       -0.8836069281
 C         -8.0591435822       -0.2419457229       -0.8855623570
 C         -8.4246197408        0.6474948327        0.1150601922
 C         -7.5268185472        0.9468447910        1.1285620521
 C         -6.2681603337        0.3816791107        1.1372072164
 C         -4.0247331230        1.9026527937        0.0061688093
 H         -3.1879917980        4.6162450895        1.8587991514
 H         -1.8914124737        2.8909539720        3.0670269249
 H         -1.9806916819        0.5354883350        2.3433073336
 H         -0.5255381990       -3.1722829180        0.2254189665
 H          1.8964535025       -2.9066107069        0.1857231478
 H          3.2659273411        1.4897000359        0.6886766320
 H          5.6692906117        1.8007187938        0.6155849876
 H          6.5201842913        1.5688808830       -1.9691184829
 H          7.4445153365        3.7473889024       -2.6401032845
 H          9.4639310647        4.6348309576       -1.5296094776
 H         10.5503021412        3.3269584261        0.2616850523
 H          9.6185839017        1.1575276645        0.9486482811
 H          7.0725296918       -1.7892362653        1.8444035851
 H          8.5735550880       -3.6426288473        2.4457272651
 H         10.6984780897       -3.9646841184        1.2288914772
 H         11.3062585706       -2.4223542271       -0.6013042886
 H          9.7984166662       -0.5814541956       -1.2202636977
 H          6.1697231871       -2.2498055569       -0.6787516652
 H          3.7669917737       -2.5679073111       -0.6439190073
 H          1.3822803335        1.3502199233       -0.1976763306
 H         -0.9994793398        1.0788783428       -0.1525851559
 H         -6.7038957694       -2.9130665690        0.7656933672
 H         -8.0485506994       -4.9208806939        0.3448613153
 H         -7.1309815563       -6.7745852758       -0.9987544567
 H         -4.8405942664       -6.6175542962       -1.9068035215
 H         -3.4899347076       -4.5829403294       -1.4922911954
 H         -6.5151406465       -1.4958368272       -1.6715601404
 H         -8.7550807576       -0.4804603852       -1.6763763852
 H         -9.4038626074        1.1014245285        0.1067977103
 H         -7.8114305114        1.6263066240        1.9186455551
 H         -5.5863389500        0.6007408763        1.9463586011
 H         -4.6072892370        1.6339728421       -0.8610785847
