81
 energy: -125.552463958035 gnorm: 0.000065390241 xtb: 6.7.1 (edcfbbe)
Br          -4.75017684576312        4.53115716890459       -0.62034943525574
C           -3.78531574614300        3.18815502145596        0.32366195928471
C           -2.97897775830895        3.54820602214350        1.39002552050698
C           -2.29121852386237        2.55842162849647        2.07241721089944
C           -2.41805455560962        1.23133138928370        1.70680799278119
C           -3.22999494885170        0.88533389611247        0.62966376040089
N           -3.39092786483315       -0.45883929556522        0.27007329031443
C           -2.41543843105738       -1.40171234686349        0.04454128574843
C           -0.98583903241002       -1.15329200439951        0.02792677107326
C           -0.12987960938602       -2.19835195133450        0.37957271906491
C            1.23641255252106       -2.02271139506916        0.36096000748081
C            1.79508989609426       -0.79833680074725       -0.00729959644379
C            3.24886124401902       -0.60657955939020       -0.01771098274263
C            3.81829946061877        0.58494614844426        0.42977581616869
C            5.18461251396941        0.76562402175128        0.42996853391940
C            6.03236755548147       -0.23900303853923       -0.03996738521770
N            7.41565301497858       -0.05651463807803       -0.05122550521925
C            7.95824029977756        1.20947303428942       -0.30473425020227
C            7.37281039399637        2.05724812801721       -1.24461299245537
C            7.91294437996859        3.30517319396451       -1.48733905431336
C            9.04504847453382        3.72468933922738       -0.80812497897397
C            9.63362267972970        2.88407885717747        0.12243822833782
C            9.09607491653579        1.63776934362001        0.37848602846896
C            8.27094840661575       -1.14017957514782        0.18593297009741
C            7.94323398997558       -2.10722920150255        1.13572336266748
C            8.79010518341627       -3.17470795072830        1.36212055494783
C            9.97634086016598       -3.29191994269558        0.65637833499320
C           10.30917486884382       -2.33081478139555       -0.28408329733620
C            9.46493227541708       -1.26420718433382       -0.52376505167121
C            5.46681568583669       -1.43021748063032       -0.49849129783152
C            4.10080750347842       -1.61056588759523       -0.47673372434609
C            0.93672621288981        0.23584805061984       -0.37801908124879
C           -0.43187730502337        0.06261621581219       -0.37086991218678
N           -2.94718850924828       -2.56942187878417       -0.20844225918659
C           -4.30005268152747       -2.42037246422377       -0.15796196796163
C           -5.17907949960736       -3.56217869683092       -0.35889093414629
C           -4.71017965942110       -4.65123794758815       -1.09242608855790
C           -5.51453911367508       -5.75486913550005       -1.29802001333857
C           -6.79552274060378       -5.79038355061041       -0.77120730964383
C           -7.26225766301256       -4.71929398671777       -0.02701190799860
C           -6.46168117153256       -3.61247044818208        0.18337542090032
C           -4.60559508605188       -1.10180248817392        0.12944868458898
C           -5.88033156456478       -0.40858548188614        0.26774387132047
C           -6.84449509445988       -0.52537036532269       -0.73285995520281
C           -8.04392213972669        0.15186814785144       -0.62745109731044
C           -8.29729444235032        0.95537146882756        0.47280061604663
C           -7.34908751027058        1.06863325130518        1.47544324230004
C           -6.14758378048871        0.39184894856947        1.37718396471731
C           -3.91442463367810        1.87106899316060       -0.07442785876552
H           -2.89274299333892        4.58304461110363        1.68142038776365
H           -1.66048033514752        2.82660385218262        2.90579137316807
H           -1.89359420874963        0.45815850299291        2.24717266623809
H           -0.56447333176466       -3.14305672740326        0.66672128879623
H            1.88403382482924       -2.83515966704869        0.65590299449584
H            3.18103561757083        1.36822557403836        0.81379108259902
H            5.60857008563031        1.68724635630970        0.80112397098405
H            6.49662632172612        1.72791469057482       -1.78385825181674
H            7.45114939176793        3.95123498686253       -2.21952659707443
H            9.46600786359470        4.69929027469757       -1.00314496664734
H           10.51400343504394        3.20424572300770        0.66009697083057
H            9.55150339076059        0.98733044535848        1.11093346189326
H            7.02378216290601       -2.01221777545168        1.69477944425650
H            8.52542195347923       -3.91602847308228        2.10178520966593
H           10.63681776168845       -4.12604785783917        0.83821889806932
H           11.22974333692909       -2.41636376512769       -0.84252893474753
H            9.72195236080404       -0.52075880616067       -1.26415420539544
H            6.10939069768394       -2.21060970622832       -0.87899743130684
H            3.68250328661877       -2.53190247186187       -0.85430782953063
H            1.35020487458877        1.17871748516354       -0.70514315430979
H           -1.06840083354905        0.87001408025183       -0.70256894514328
H           -3.70875382106990       -4.60964171861297       -1.49196554058361
H           -5.14325378266056       -6.59218794419039       -1.87121456324215
H           -7.42600582389537       -6.65242912555006       -0.93350507523037
H           -8.25561989942056       -4.74849339840376        0.39734264356214
H           -6.82702481456012       -2.79054784657239        0.78098401668881
H           -6.64007175370524       -1.14861122922338       -1.59119884993434
H           -8.78205768585535        0.05819009681812       -1.41011563892567
H           -9.23212310292211        1.48989056963298        0.54953469326571
H           -7.54510612470907        1.68704341793506        2.33912535190986
H           -5.41690090101412        0.47280273766042        2.17011331558273
H           -4.53779077911181        1.60794825921825       -0.91497174057682
