66
 energy: -105.277566729992 gnorm: 0.000024899030 xtb: 6.7.1 (edcfbbe)
C           11.91474981052501        0.41121203387866       -0.48139525969768
C           11.16077596988082       -0.60979206142943       -1.05734162774684
C            9.78863434962544       -0.56841378038433       -0.96077872077894
C            9.18383579635964        0.50255205995003       -0.27923880764039
C            7.74660146850929        0.59116066280532       -0.15983152208415
C            7.12868418952557        1.66646315861161        0.50882308423668
C            5.76738256564794        1.68190186739940        0.64723417003660
C            4.97968437108822        0.64105111065493        0.10423801162803
C            3.54145125439395        0.61641262238944        0.19385441642642
C            2.79155371563188        1.80910563520396        0.28601095286947
C            1.43078484602353        1.77320419662254        0.34220813034816
C            0.70113141700978        0.55819027083960        0.32022955209745
C           -0.72107598789942        0.52781185104132        0.28912936305864
C           -1.50006795638759        1.71197433864396        0.26966294343807
C           -2.85991841840356        1.69074560096215        0.18744573592449
C           -3.55758207015099        0.46704635936941        0.09653038985710
C           -4.99311538984498        0.42601107492755       -0.02781045024462
C           -5.68382615753947       -0.62674864683670       -0.67051864965956
C           -7.05096632364083       -0.62343613733377       -0.73192302022759
C           -7.76904905015255        0.45027799674347       -0.16981646502498
C           -9.20962831242755        0.52290861813729       -0.25848535298687
C           -9.91739296351033        1.58955405357651        0.32313038289993
C          -11.29000631247039        1.61287547772557        0.22658593664150
C          -11.94280815943044        0.57842576383502       -0.44147300905659
C          -11.16432081217916       -0.43279709568525       -0.98524703507872
N           -9.85175517734259       -0.45939235324056       -0.90238506306067
N           -7.11287454476833        1.43452979158233        0.46026650882938
C           -5.81144017268427        1.42923880813661        0.53052265449668
C           -2.79972725699946       -0.70883155129893        0.13576740329781
C           -1.41701709248989       -0.71724705484906        0.24159824789079
C           -0.66365194578436       -1.96043739863877        0.31813158415014
C           -1.30514811924295       -3.20391172748674        0.38505702679797
C           -0.60019585088054       -4.38404837910667        0.47315227384165
C            0.78556860273790       -4.35280079459122        0.51211016053059
C            1.44038774816475       -3.14226383619958        0.45535479327723
C            0.74768457206492       -1.92968237807533        0.34717465475190
C            1.44972427395140       -0.65626911459221        0.28711959263426
C            2.83195510193119       -0.58995716431894        0.19791979430185
C            5.69762136292480       -0.36097486867557       -0.58076644271166
N            6.99528605759326       -0.37886246206620       -0.69909284273006
N            9.92305944284737        1.47284775360610        0.27225342797718
C           11.23382395864580        1.42893508528127        0.17041790872085
H           12.99168752661406        0.41347407875023       -0.53162727090373
H           11.64972513487729       -1.42305633744899       -1.57452993007253
H            9.15287229648629       -1.32339655765456       -1.39580070249067
H            7.76239636712926        2.43265290850391        0.92723022415661
H            5.29274443242718        2.47295807613626        1.20856058491451
H            3.30036666702150        2.76121754235895        0.28099941336522
H            0.90310237032285        2.71111949672096        0.39825354557918
H           -1.01205420767574        2.67175182566097        0.31267572988276
H           -3.40723435724302        2.62077861120841        0.15260598264612
H           -5.12631052632782       -1.41650449832543       -1.15202282458518
H           -7.61035856165493       -1.39970135430726       -1.23023238441590
H           -9.35838642358260        2.35572671024427        0.83692248017065
H          -11.85689560819642        2.42173736397736        0.66503721391204
H          -13.01616550686826        0.56153752835462       -0.54140843993441
H          -11.61335797665286       -1.26021861941815       -1.52077845840369
H           -5.37687227221142        2.23896398783771        1.10223160518080
H           -3.33790225817091       -1.64080340464345        0.09677311306973
H           -2.38132675026706       -3.26091870440114        0.37920075594991
H           -1.12688266544362       -5.32592351743352        0.52111461897590
H            1.35067386878805       -5.26977511676011        0.59310409280180
H            2.51678772487810       -3.14883529544145        0.51167596121292
H            3.40778062752589       -1.49907669688840        0.15145864184260
H            5.17669501596492       -1.15753471970364       -1.09627271410604
H           11.76464187029367        2.24705157126337        0.64149602737600
