66
 energy: -105.357693134077 gnorm: 0.000144564258 xtb: 6.7.1 (edcfbbe)
C           11.93143604443177        0.45190121895580       -0.09497350344025
C           11.23906784104468       -0.56230486902538       -0.74106047489203
C            9.85663530296720       -0.53816318367954       -0.72988740301048
C            9.20751205908990        0.50591923522024       -0.06717794132290
C            7.74164994892265        0.57542604948313       -0.02755731450177
C            7.08779349777863        1.61275060559177        0.64087787708275
C            5.70803132860232        1.63513689379928        0.65379524408794
C            4.99741253493630        0.62651745013535       -0.00002612400697
C            3.53205604468826        0.60121321184599       -0.02576174883758
C            2.79874174178369        1.78246901782214       -0.17440475766165
C            1.42798299907037        1.74232930492644       -0.20761131565234
C            0.71432485206660        0.53963001053356       -0.09227108017153
C           -0.73417748831792        0.50717740849251       -0.12496974641610
C           -1.49274288568763        1.66456105108744       -0.35818169879352
C           -2.86440825102761        1.64783241989472       -0.36695207753707
C           -3.55209287404826        0.45045398625239       -0.14719170563053
C           -5.01764045764336        0.41461561942720       -0.14879535517784
C           -5.73277049312186       -0.63104691705919       -0.73603685352138
C           -7.11233161853165       -0.61182895900459       -0.70669951362244
C           -7.76106829407291        0.45967543819332       -0.08916525828610
C           -9.22662239005123        0.52904872096296       -0.03826960278525
C           -9.87097044086847        1.59548939515711        0.59267839362591
C          -11.25330330785734        1.62020585485396        0.61309716199748
C          -11.95033442822748        0.58446721340364        0.00744544213258
C          -11.21905193719317       -0.43143010924488       -0.59139741358261
N           -9.90025735097394       -0.46525461799434       -0.61791283498266
N           -7.08383650040614        1.45982227626547        0.47681984441944
C           -5.76857911375289        1.43252835094462        0.44538690431235
C           -2.81779171634296       -0.70218115840996        0.06741992587060
C           -1.41860588821439       -0.71095327207487        0.08159286278405
C           -0.66901111739549       -1.94130852364494        0.27422744934510
C           -1.31280036925641       -3.16965148352254        0.48248230577258
C           -0.61091627506331       -4.34390027647424        0.61758873791332
C            0.77592209149788       -4.32819098127100        0.53957999790814
C            1.43268143645749       -3.13535339174621        0.35122201061219
C            0.74218978379972       -1.92082552755934        0.22948460054339
C            1.44471192171825       -0.65819366832076        0.07162270674149
C            2.84210343893874       -0.59171612396782        0.09775794527382
C            5.75357707880571       -0.35772739870145       -0.64266364030106
N            7.06896089411508       -0.38864007963062       -0.65785190150685
N            9.87667054952596        1.47862093530963        0.55280153238820
C           11.19561832958500        1.44585621548298        0.53439605254175
H           13.00989999436448        0.47284127455109       -0.07876527511925
H           11.77029470425551       -1.35745520468583       -1.24435216731630
H            9.26498546060570       -1.29730820335186       -1.21521309460934
H            7.67616189054529        2.36838843625497        1.13568140802965
H            5.17905025951468        2.41565496343672        1.18170808143768
H            3.31377529778405        2.72540946154925       -0.28344033244172
H            0.90105325223585        2.67552446232883       -0.31974270538721
H           -1.00124011816904        2.60451902728824       -0.54792163448791
H           -3.41550710436108        2.55468357797508       -0.56755842540075
H           -5.20769699469517       -1.43738119829954       -1.22818621754927
H           -7.70428936726364       -1.39507182171439       -1.15181306558906
H           -9.27590863530435        2.37117937393129        1.04668161147142
H          -11.78095571951349        2.43215846159774        1.09274639758266
H          -13.02888861945329        0.56365175182234       -0.00093251754452
H          -11.71163958664685       -1.26446805253943       -1.07792509475668
H           -5.27905070363543        2.26339907500053        0.93853630206373
H           -3.36485669722946       -1.61311870626827        0.24533747475752
H           -2.38776021965224       -3.21635998886966        0.54186072645005
H           -1.13668344921343       -5.27381366561946        0.77795976978159
H            1.33700887360975       -5.24685474426203        0.62915180186234
H            2.50872485800428       -3.15621531401524        0.29560871374961
H            3.42272938515217       -1.48658944529109        0.24876843935080
H            5.26893897073757       -1.15542696057051       -1.19240189298123
H           11.68449870253091        2.26134819164635        1.05324433976170
