  45
        -72.48109604
 O          1.4100063081        3.7697694322        0.1243677360
 C          1.6215439850        2.5707600667        0.1103345404
 C          1.6981569428        1.7550726150        1.3390975776
 C          1.9551363338        2.3950766300        2.5504395190
 C          2.1067935336        1.6645665774        3.7106307590
 C          2.0071100401        0.2827769884        3.6616019093
 C          1.7360114836       -0.3583361367        2.4651821477
 C          1.5760627536        0.3652585223        1.2900705607
 C          1.1691636162       -0.3085896384       -0.0077786472
 C          1.6642085491       -1.7459048450       -0.0379298070
 C          3.0254386960       -1.9708286566        0.1490529214
 C          3.5389063787       -3.2530036869        0.1160254475
 C          2.6990221444       -4.3316240946       -0.1109446220
 C          1.3480161687       -4.1148394443       -0.3119629746
 C          0.8321437744       -2.8290245599       -0.2791322171
 C         -0.3575443209       -0.2319878182       -0.0538304813
 C         -1.0989123844       -0.6702268018        1.0401429367
 C         -2.4791433809       -0.6162416835        1.0372887001
 C         -3.1314346096       -0.1132367430       -0.0749502809
 Br        -5.0385350184       -0.0319692656       -0.0897838322
 C         -2.4199829631        0.3275200481       -1.1745919421
 C         -1.0371071929        0.2646358454       -1.1586823729
 C          1.7473879338        0.4383990409       -1.1918620490
 C          2.0435466086       -0.2167287675       -2.3805081450
 C          2.5123138421        0.4847110920       -3.4779615304
 C          2.6744420838        1.8603881039       -3.4145879519
 C          2.3666269236        2.5258705985       -2.2458548194
 C          1.9077728051        1.8244691204       -1.1321948866
 H          2.0371860971        3.4715022658        2.5492901898
 H          2.3058604108        2.1636155548        4.6465627167
 H          2.1362675127       -0.3010396884        4.5608789312
 H          1.6632941704       -1.4358541692        2.4461845000
 H          3.6810656213       -1.1292835781        0.3224427873
 H          4.5963004715       -3.4115516835        0.2663747448
 H          3.0974841501       -5.3345772667       -0.1346572177
 H          0.6867122418       -4.9481772415       -0.4974577272
 H         -0.2235711147       -2.6762494956       -0.4459550437
 H         -0.5959562399       -1.0626277939        1.9093032083
 H         -3.0422203303       -0.9604544006        1.8909517008
 H         -2.9364342240        0.7167280946       -2.0383363668
 H         -0.4960547436        0.6079908724       -2.0255218664
 H          1.9038096988       -1.2849238363       -2.4501436824
 H          2.7451215436       -0.0458627102       -4.3890660730
 H          3.0333756810        2.4064842686       -4.2735053462
 H          2.4749748564        3.5968856342       -2.1640954170
  45
        -72.48095414
 O          1.5503138702        3.7724235227        0.2367166146
 C          1.6935703177        2.5631474190        0.2026984651
 C          1.8276615751        1.7447520780        1.4250445907
 C          2.1849583278        2.3760648308        2.6157307674
 C          2.3306094309        1.6487777639        3.7788166344
 C          2.1049011485        0.2808107030        3.7583012202
 C          1.7385323248       -0.3510143320        2.5827037993
 C          1.6081906451        0.3654139408        1.3995755837
 C          1.1510658144       -0.3166503679        0.1268294018
 C          1.6689305366       -1.7461780485        0.1409633982
 C          3.0339853368       -1.9506587377       -0.0378825022
 C          3.5671246477       -3.2250524872       -0.0000922152
 C          2.7440440552       -4.3157755046        0.2283176982
 C          1.3897220382       -4.1189104966        0.4292741273
 C          0.8543977384       -2.8415653506        0.3908222900
 C         -0.3723494990       -0.2478095736        0.0174172761
 C         -1.0063135304       -0.8537683693       -1.0641876589
 C         -2.3773191561       -0.7907759435       -1.2174030615
 C         -3.1291138448       -0.1047740145       -0.2791320930
 Br        -5.0250865376       -0.0114264678       -0.4804681293
 C         -2.5249995235        0.5089968864        0.8014010081
 C         -1.1497385242        0.4342814935        0.9441933589
 C          1.6544612368        0.4241728116       -1.0990925775
 C          1.8662962511       -0.2361698862       -2.3033431053
 C          2.2289117705        0.4609325222       -3.4421466941
 C          2.3742155259        1.8393506936       -3.4048478848
 C          2.1743232386        2.5070912776       -2.2152088036
 C          1.8221629960        1.8095864996       -1.0600737640
 H          2.3411160624        3.4442309094        2.5974127727
 H          2.6107900288        2.1412989836        4.6973776392
 H          2.2085490526       -0.2981894540        4.6637995928
 H          1.5513922895       -1.4140618521        2.5865650042
 H          3.6782980166       -1.1002026695       -0.2096375170
 H          4.6274056280       -3.3668171445       -0.1471219198
 H          3.1578718821       -5.3124121080        0.2545810412
 H          0.7419215146       -4.9614156388        0.6213612345
 H         -0.2029460544       -2.7035620377        0.5616692714
 H         -0.4252785052       -1.3864540132       -1.7992554239
 H         -2.8573446793       -1.2688166853       -2.0572606722
 H         -3.1182023737        1.0424541868        1.5279201616
 H         -0.6945013083        0.9155403535        1.7944364076
 H          1.7687862212       -1.3105223056       -2.3516654684
 H          2.3971418449       -0.0757391690       -4.3639968030
 H          2.6475594697        2.3829892368       -4.2961448936
 H          2.2900178432        3.5782273327       -2.1449713593
  45
        -72.48089942
 O          1.5740882507        3.7583757199        0.4363052684
 C          1.7044482164        2.5512395881        0.3358840065
 C          1.8371466616        1.6673694183        1.5118372540
 C          2.2020148233        2.2322290474        2.7333441572
 C          2.3423335714        1.4443447657        3.8568428227
 C          2.1022589760        0.0818151369        3.7657994825
 C          1.7285838623       -0.4842207954        2.5594127132
 C          1.6055762437        0.2933178637        1.4146314800
 C          1.1483800999       -0.3211875470        0.1076497708
 C          1.6753466252       -1.7462177428        0.0509583764
 C          3.0381173260       -1.9347712521       -0.1584998551
 C          3.5808283396       -3.2057348745       -0.1697184131
 C          2.7700945888       -4.3092075922        0.0402131488
 C          1.4180498738       -4.1290784983        0.2703610230
 C          0.8732728366       -2.8553374552        0.2808262425
 C         -0.3750208844       -0.2524154373        0.0022591015
 C         -1.1486675825        0.4276319973        0.9337186152
 C         -2.5236805245        0.5084864465        0.7933958449
 C         -3.1315598698       -0.0977089325       -0.2894730479
 Br        -5.0275567476        0.0039637201       -0.4873575917
 C         -2.3835651337       -0.7800543087       -1.2333778204
 C         -1.0122778010       -0.8479473238       -1.0831054691
 C          1.6424066795        0.4857365644       -1.0796334411
 C          1.8395168638       -0.1082021143       -2.3204268272
 C          2.1937790335        0.6488442857       -3.4229591709
 C          2.3436619804        2.0228114494       -3.3121616434
 C          2.1577685095        2.6249560900       -2.0859305367
 C          1.8154587790        1.8664427319       -0.9667809053
 H          2.3681109035        3.2982729652        2.7701785137
 H          2.6303047167        1.8854304268        4.7988279014
 H          2.2016546438       -0.5444862385        4.6397010035
 H          1.5312682918       -1.5438929763        2.5088712130
 H          3.6737947305       -1.0748514209       -0.3140598071
 H          4.6394906265       -3.3346169604       -0.3384204067
 H          3.1919658431       -5.3026835562        0.0325177402
 H          0.7800476979       -4.9817938300        0.4493910105
 H         -0.1811452678       -2.7303672002        0.4784041968
 H         -0.6900531812        0.9037918653        1.7850997705
 H         -3.1137616025        1.0401381840        1.5237398468
 H         -2.8665143041       -1.2494094640       -2.0764838401
 H         -0.4342207129       -1.3777553248       -1.8226563410
 H          1.7372755064       -1.1778519977       -2.4265665241
 H          2.3512409743        0.1625309943       -4.3741535476
 H          2.6096680464        2.6137371350       -4.1751269567
 H          2.2782287019        3.6901043261       -1.9582359847
  45
        -72.48082543
 O          4.3543553659        2.2501742481        0.0413006720
 C          3.2141938474        1.8225057014        0.0462056114
 C          2.4671384844        1.5507772123        1.2901135058
 C          2.9063297540        2.1468167595        2.4716640152
 C          2.1983024098        1.9864739093        3.6440270114
 C          1.0367939721        1.2295613715        3.6372149563
 C          0.6034002554        0.6220029079        2.4718432736
 C          1.3105833177        0.7684915707        1.2845037598
 C          0.9122922739        0.0165228312        0.0286418722
 C          1.6919887356       -1.3018544915        0.0872455206
 C          1.5067124407       -2.1534744598        1.1719825130
 C          2.2021699887       -3.3443063534        1.2650536071
 C          3.1030880319       -3.7035357607        0.2768262084
 C          3.2959080859       -2.8617642944       -0.8029064701
 C          2.5961489475       -1.6699940576       -0.8992241166
 C         -0.5886131592       -0.2081546707       -0.0081924822
 C         -1.1602359282       -1.4458989974       -0.2691262630
 C         -2.5359311053       -1.5917569661       -0.3303338220
 C         -3.3428421642       -0.4862387684       -0.1353120772
 Br        -5.2418588193       -0.6821076909       -0.2137353462
 C         -2.7966638901        0.7626345712        0.1096666960
 C         -1.4230157151        0.8932435004        0.1667303413
 C          1.3078471471        0.7938047614       -1.2093758251
 C          0.6143711348        0.6395380707       -2.4034426376
 C          1.0142284046        1.3074854128       -3.5478044852
 C          2.1315748423        2.1283139333       -3.5267292022
 C          2.8417011086        2.2746451960       -2.3531387313
 C          2.4361788379        1.6170335823       -1.1927246182
 H          3.8081094054        2.7394191685        2.4358187181
 H          2.5409822695        2.4505380777        4.5561221361
 H          0.4648208328        1.1079738733        4.5451271084
 H         -0.3069564203        0.0409731252        2.4883666609
 H          0.8107461152       -1.8867072636        1.9518640117
 H          2.0408563171       -3.9915707067        2.1143138482
 H          3.6499212969       -4.6313369703        0.3496255779
 H          3.9955469761       -3.1291243678       -1.5807922941
 H          2.7628753202       -1.0341664479       -1.7543157584
 H         -0.5335788652       -2.3091024295       -0.4314718992
 H         -2.9735367784       -2.5573950070       -0.5312483001
 H         -3.4365959865        1.6199037567        0.2498833204
 H         -0.9887011271        1.8648296819        0.3499697664
 H         -0.2452560488       -0.0123513621       -2.4429164179
 H          0.4539641937        1.1795407312       -4.4619970434
 H          2.4462052420        2.6429704762       -4.4216956485
 H          3.7223924949        2.8971392747       -2.3026469553
  45
        -72.48082095
 O          1.6825476124        3.7754866337        0.0515625116
 C          1.7638905357        2.5597318259        0.0519572244
 C          1.7215891512        1.7601486882        1.2915710470
 C          1.9506121672        2.4099685706        2.5046560485
 C          1.9871261189        1.7005729544        3.6860521640
 C          1.7999633863        0.3267096169        3.6583950521
 C          1.5595282489       -0.3226360397        2.4610766828
 C          1.5139860934        0.3800851720        1.2625927231
 C          1.1482017142       -0.3165216281       -0.0358547743
 C          1.6891857906       -1.7375969884       -0.0521642784
 C          3.0193289199       -1.9379799245        0.3036246102
 C          3.5770297737       -3.2020177933        0.2665951894
 C          2.8158868810       -4.2855848985       -0.1396575871
 C          1.5001784690       -4.0911530229       -0.5195960854
 C          0.9404196361       -2.8244461816       -0.4819460635
 C         -0.3789770228       -0.2582208905       -0.0689814021
 C         -1.1150376335       -1.0015265739        0.8497879396
 C         -2.4944636164       -0.9386317485        0.8800511480
 C         -3.1512026259       -0.1116976015       -0.0147813937
 Br        -5.0572392924       -0.0125230651        0.0215609853
 C         -2.4447784435        0.6425568955       -0.9322048295
 C         -1.0627590803        0.5652894221       -0.9542777401
 C          1.7210902430        0.4099724420       -1.2352918303
 C          1.9254509323       -0.2607457358       -2.4348949863
 C          2.4048485646        0.4051263837       -3.5490646598
 C          2.6743455628        1.7641596534       -3.4921252097
 C          2.4556086163        2.4474949204       -2.3143824919
 C          1.9821370700        1.7813341156       -1.1841645324
 H          2.1033125439        3.4787125886        2.4850959315
 H          2.1662367412        2.2077475018        4.6216246902
 H          1.8401557908       -0.2435026360        4.5746608121
 H          1.4269858861       -1.3939362832        2.4608159402
 H          3.6177900922       -1.0932825679        0.6133308028
 H          4.6089278310       -3.3405110395        0.5524444036
 H          3.2487250297       -5.2741217289       -0.1666254583
 H          0.9029785233       -4.9270027250       -0.8525645394
 H         -0.0835680524       -2.6868810686       -0.7963049331
 H         -0.6098794332       -1.6448259679        1.5517039338
 H         -3.0539280523       -1.5227459185        1.5945417660
 H         -2.9639498857        1.2877477356       -1.6238727603
 H         -0.5266165680        1.1601729932       -1.6757663977
 H          1.7083551655       -1.3158408883       -2.5000202537
 H          2.5652041072       -0.1402270403       -4.4671917013
 H          3.0445217730        2.2836918732       -4.3626584318
 H          2.6414789096        3.5082827395       -2.2367664048
  45
        -72.48070130
 O          1.8286970653        3.7822677094        0.0456529498
 C          1.8442143807        2.5634433799        0.0461640613
 C          1.7516638255        1.7704838205        1.2867515518
 C          1.9761251532        2.4207846372        2.5009601274
 C          1.9613638406        1.7205151838        3.6876938861
 C          1.7259436747        0.3538022118        3.6652774658
 C          1.4918513382       -0.2956172526        2.4672036144
 C          1.4984762615        0.3982221592        1.2623213927
 C          1.1410725346       -0.3046076119       -0.0346431095
 C          1.6958196886       -1.7208283397       -0.0489402739
 C          3.0088836257       -1.9228465668        0.3633192697
 C          3.5750808739       -3.1834848949        0.3236343901
 C          2.8408867444       -4.2612352988       -0.1425556977
 C          1.5432106347       -4.0645218300       -0.5802206292
 C          0.9753775930       -2.8019030420       -0.5399639749
 C         -0.3864391438       -0.2576575076       -0.0637071086
 C         -1.1212669578       -1.0744247478        0.7911488118
 C         -2.5012117316       -1.0200315770        0.8217662174
 C         -3.1593527270       -0.1271003400       -0.0057391330
 Br        -5.0662455036       -0.0437451298        0.0296103021
 C         -2.4537369545        0.7046238809       -0.8545723918
 C         -1.0715143345        0.6351496200       -0.8783386286
 C          1.7051344019        0.4161030723       -1.2422873246
 C          1.8606307433       -0.2546028234       -2.4497031731
 C          2.3364485196        0.3994366418       -3.5720723105
 C          2.6542674913        1.7481457781       -3.5159213825
 C          2.4853626323        2.4318728834       -2.3306763659
 C          2.0137093342        1.7774949128       -1.1923016048
 H          2.1666131047        3.4832535151        2.4767720059
 H          2.1354762066        2.2288328787        4.6236564221
 H          1.7240835352       -0.2100510175        4.5862110978
 H          1.3218522719       -1.3613795839        2.4711847135
 H          3.5886777933       -1.0835302714        0.7196238328
 H          4.5931680136       -3.3233892325        0.6550657061
 H          3.2803130419       -5.2467720747       -0.1713056554
 H          0.9675022603       -4.8949074371       -0.9616326311
 H         -0.0336733076       -2.6623698988       -0.8995340669
 H         -0.6165465747       -1.7708714940        1.4406795369
 H         -3.0597429691       -1.6630101064        1.4843163025
 H         -2.9741292267        1.4017610004       -1.4930292286
 H         -0.5347122298        1.2914538492       -1.5440067832
 H          1.6084085973       -1.3018047511       -2.5148007304
 H          2.4552725054       -0.1463906007       -4.4961355160
 H          3.0247463455        2.2584950723       -4.3917493634
 H          2.7084259377        3.4853938171       -2.2522286842
  45
        -72.48061201
 O          1.9593404807        3.7573796665        0.4623319197
 C          1.9100549077        2.5437800555        0.3538994528
 C          1.9148790562        1.6494698397        1.5287273551
 C          2.2729281242        2.1888685241        2.7651862418
 C          2.2766761866        1.4069598575        3.9002061133
 C          1.9048959151        0.0739149502        3.8064002888
 C          1.5442025186       -0.4668596763        2.5857016264
 C          1.5574456719        0.3031771902        1.4281800550
 C          1.1210874611       -0.3028960564        0.1094438532
 C          1.6944624027       -1.7110681801        0.0526168567
 C          3.0379106175       -1.8672061772       -0.2719246414
 C          3.6197198109       -3.1212325986       -0.2862761430
 C          2.8701991489       -4.2394879070        0.0382720181
 C          1.5404413250       -4.0905814330        0.3895486385
 C          0.9567510249       -2.8345648826        0.4025156708
 C         -0.4023462271       -0.2627735967       -0.0024218330
 C         -1.1589653397        0.6009970604        0.7803871964
 C         -2.5332864255        0.6750957115        0.6362968984
 C         -3.1592173800       -0.1214598890       -0.3042347510
 Br        -5.0559020718       -0.0348000153       -0.5036127691
 C         -2.4286144242       -0.9829896737       -1.1034201448
 C         -1.0565855432       -1.0428647815       -0.9515288718
 C          1.5942541721        0.5104650255       -1.0811566854
 C          1.6624102503       -0.0703545497       -2.3430712185
 C          2.0128630749        0.6744616987       -3.4536146578
 C          2.2934052975        2.0274647358       -3.3296955951
 C          2.2354511230        2.6156942268       -2.0851298786
 C          1.8928602210        1.8678503396       -0.9571757815
 H          2.5412987045        3.2341156807        2.8009230450
 H          2.5578972599        1.8292199387        4.8527748378
 H          1.8923703777       -0.5477105527        4.6892573238
 H          1.2504287855       -1.5038225504        2.5327097445
 H          3.6297762070       -0.9972925794       -0.5174834221
 H          4.6621651998       -3.2241779442       -0.5480912750
 H          3.3227357062       -5.2194568406        0.0262620629
 H          0.9508084143       -4.9540843255        0.6598718035
 H         -0.0794629487       -2.7345339905        0.6914490197
 H         -0.6833716441        1.2315792335        1.5141353254
 H         -3.1091881495        1.3488480741        1.2517300811
 H         -2.9249729123       -1.5976863053       -1.8384183863
 H         -0.4964664842       -1.7148587595       -1.5811744897
 H          1.4595283449       -1.1238880072       -2.4587529895
 H          2.0674415351        0.1968188623       -4.4206089954
 H          2.5609248229        2.6107846021       -4.1973797522
 H          2.4592311338        3.6627842241       -1.9465792445
  45
        -72.48052640
 O          4.1540057186        2.5804873809        0.0515883474
 C          3.0904919979        1.9850829436        0.0597349410
 C          2.4165204211        1.5843659783        1.3090465167
 C          2.8463641706        2.1656963723        2.5028287797
 C          2.2125508186        1.8813879829        3.6928650028
 C          1.1312320289        1.0127808673        3.6937142430
 C          0.7066379170        0.4243663995        2.5167870920
 C          1.3414536731        0.6941669531        1.3092242491
 C          0.9338992861       -0.0360330077        0.0441184024
 C          1.7052970364       -1.3582294680        0.1067565490
 C          1.3250614583       -2.3393822264        1.0168539008
 C          2.0320747773       -3.5229991801        1.1192197780
 C          3.1408956265       -3.7440643877        0.3203831292
 C          3.5336346136       -2.7692234626       -0.5783120634
 C          2.8238158274       -1.5846910177       -0.6839901044
 C         -0.5722687505       -0.2271701543        0.0008636204
 C         -1.1664061141       -1.4066582548       -0.4306373799
 C         -2.5436200756       -1.5190214258       -0.5114324436
 C         -3.3316406661       -0.4362086225       -0.1666722313
 Br        -5.2334864281       -0.5859481615       -0.2705041674
 C         -2.7637203811        0.7576022510        0.2437474260
 C         -1.3875712147        0.8553480409        0.3178641606
 C          1.3210033342        0.7326466156       -1.2030139311
 C          0.6971929689        0.4618116046       -2.4155298122
 C          1.0654367989        1.1268079696       -3.5712205278
 C          2.0809455174        2.0709758464       -3.5434486051
 C          2.7256599483        2.3324573731       -2.3532482576
 C          2.3549000895        1.6714500486       -1.1817773307
 H          3.6834756795        2.8461965343        2.4596804510
 H          2.5498370134        2.3335010175        4.6129229519
 H          0.6152356223        0.7917318150        4.6162159572
 H         -0.1422067836       -0.2418278417        2.5399000078
 H          0.4661682555       -2.1849462540        1.6509552477
 H          1.7160759047       -4.2730506861        1.8291068879
 H          3.6948353248       -4.6669829900        0.4009734234
 H          4.3994760892       -2.9255471044       -1.2042956510
 H          3.1521660423       -0.8400646939       -1.3918652698
 H         -0.5546459015       -2.2505234459       -0.7108823937
 H         -2.9977441480       -2.4395464436       -0.8442565423
 H         -3.3879649633        1.6008182395        0.4954808991
 H         -0.9394258190        1.7869911088        0.6292288118
 H         -0.0866134373       -0.2788698538       -2.4599857283
 H          0.5586227894        0.9038071021       -4.4983060111
 H          2.3696962903        2.5883516911       -4.4455047213
 H          3.5318033944        3.0484639406       -2.2955393368
  45
        -72.48005968
 O          2.8100629844        3.5995971540        0.1141004786
 C          2.3559466117        2.4669556810        0.1008702103
 C          2.1076089966        1.7138769660        1.3451147256
 C          2.4870117927        2.3085501736        2.5512349932
 C          2.2513470908        1.6821727567        3.7546973516
 C          1.6186170391        0.4474318401        3.7623233238
 C          1.2428009928       -0.1491085453        2.5741359570
 C          1.4883481271        0.4635106920        1.3493454806
 C          1.0550347456       -0.2380262864        0.0773244656
 C          1.7239947783       -1.6073978774        0.1136890380
 C          1.1153013620       -2.7242317622        0.6730764461
 C          1.7876012289       -3.9328570203        0.7408421369
 C          3.0812408344       -4.0418355697        0.2634101110
 C          3.7036683785       -2.9283631966       -0.2744556341
 C          3.0321114730       -1.7215966066       -0.3436019912
 C         -0.4677105345       -0.2784935889        0.0141511522
 C         -1.1516036763       -1.2792591301       -0.6675952162
 C         -2.5308044390       -1.2598102071       -0.7675472371
 C         -3.2361243928       -0.2209368136       -0.1880902234
 Br        -5.1410336585       -0.1897262160       -0.3182533142
 C         -2.5800337956        0.7971001799        0.4795344123
 C         -1.2010546158        0.7636224600        0.5721399881
 C          1.4682641625        0.4963578582       -1.1837003425
 C          1.2539979500       -0.1096184481       -2.4178944635
 C          1.5781960743        0.5319037496       -3.5974481371
 C          2.1287358060        1.8056685015       -3.5711619216
 C          2.3591785733        2.4127996658       -2.3571224280
 C          2.0366575621        1.7698637258       -1.1589962918
 H          2.9641780557        3.2759005670        2.5041955847
 H          2.5491302169        2.1490053613        4.6809320433
 H          1.4163503956       -0.0519937865        4.6980188200
 H          0.7496601309       -1.1077338097        2.5984142703
 H          0.1075527640       -2.6632487671        1.0568602229
 H          1.2953212773       -4.7907930753        1.1738157199
 H          3.6034753487       -4.9847995052        0.3176762247
 H          4.7174734188       -2.9963261788       -0.6390079293
 H          3.5302939650       -0.8573378399       -0.7570322756
 H         -0.6144855770       -2.0955058074       -1.1240985636
 H         -3.0510396695       -2.0451097659       -1.2939637133
 H         -3.1378189801        1.6086170026        0.9204610033
 H         -0.6939896429        1.5635250678        1.0888248838
 H          0.8375440198       -1.1035650491       -2.4562358019
 H          1.4017585152        0.0373750404       -4.5409290372
 H          2.3791143265        2.3108944207       -4.4912675670
 H          2.7990831192        3.3968672187       -2.2951982660
  45
        -72.47999087
 O          3.3583880452        3.3309275918        0.0946664666
 C          2.6458514535        2.3401459816        0.0890606132
 C          2.2209761646        1.6787101231        1.3367567095
 C          2.6055734331        2.2640271293        2.5461554894
 C          2.2048769418        1.7302846965        3.7503476736
 C          1.3997229738        0.5999038841        3.7554268161
 C          1.0198854455        0.0118257885        2.5647138616
 C          1.4277738944        0.5314144258        1.3397927800
 C          1.0111654422       -0.1788511149        0.0673487883
 C          1.7282973733       -1.5264455769        0.1141338347
 C          1.1837666903       -2.6315250614        0.7575695781
 C          1.8863773076       -3.8215496983        0.8327606660
 C          3.1492954902       -3.9242820784        0.2774490309
 C          3.7086902911       -2.8226943557       -0.3460293442
 C          3.0062940119       -1.6334167821       -0.4224032394
 C         -0.5071092227       -0.2734114495        0.0115742901
 C         -1.1694188406       -1.3392433978       -0.5869422854
 C         -2.5496750241       -1.3566822522       -0.6815711002
 C         -3.2759348613       -0.2918366950       -0.1811862949
 Br        -5.1816816620       -0.3123273036       -0.3044704448
 C         -2.6409368818        0.7898488134        0.4027637569
 C         -1.2616611387        0.7932968030        0.4899449490
 C          1.4099303381        0.5636332395       -1.1934698287
 C          1.0384417768        0.0428911031       -2.4291711620
 C          1.3677401634        0.6857782448       -3.6068671654
 C          2.0849131894        1.8733225445       -3.5774918717
 C          2.4769891534        2.3907221319       -2.3632296137
 C          2.1506343237        1.7456793376       -1.1673740164
 H          3.2206937501        3.1501969409        2.5004004980
 H          2.5074221266        2.1890554092        4.6792028699
 H          1.0664362599        0.1761561214        4.6909735757
 H          0.3889552028       -0.8624153793        2.5863698143
 H          0.2010629866       -2.5775721841        1.2012118170
 H          1.4422732511       -4.6706239368        1.3309998568
 H          3.6956131091       -4.8534280057        0.3356834207
 H          4.6979131794       -2.8860260000       -0.7742036825
 H          3.4593146434       -0.7802388067       -0.9046964145
 H         -0.6140452948       -2.1760215986       -0.9815427671
 H         -3.0545192898       -2.1913034124       -1.1430343910
 H         -3.2150464444        1.6211451887        0.7812130316
 H         -0.7669887948        1.6416842177        0.9375452813
 H          0.4866855760       -0.8826691809       -2.4713324172
 H          1.0644054960        0.2588567936       -4.5511682623
 H          2.3390828970        2.3805651947       -4.4955266376
 H          3.0510110768        3.3030146751       -2.2996013168
