62
 energy: -95.251244628620 gnorm: 0.000074023730 xtb: 6.7.1 (edcfbbe)
C           -1.63367934068299       -3.63988463899641       -2.29510459305679
C           -1.48503241971969       -2.60499252421534       -3.20348642625504
C           -0.73468254193902       -1.49899781674471       -2.86090767277165
C           -0.14092425354597       -1.39261825426800       -1.60432642483792
N            0.60573011760954       -0.23841070913870       -1.32655586795460
C            0.16535600826364        1.05148922725176       -1.56369545839810
C           -1.08175893078079        1.49645434600245       -1.97711484270043
C           -1.26701735158194        2.85872478929639       -2.11027464006783
C           -0.24541471371065        3.76345816446117       -1.83310897292777
C            0.98990446367792        3.32716348385092       -1.39973021795582
C            1.20079182318702        1.96253711988083       -1.26071294296020
C            2.32286293623015        1.17617127780285       -0.83351824604893
C            3.60877700760874        1.49780955122181       -0.42202478164482
C            4.47560524680367        0.47387106352059       -0.09669649395405
C            4.08141352254469       -0.85726649896388       -0.20789077204408
C            2.80846913898839       -1.20188311791879       -0.61983676940562
C            1.91730049839233       -0.17681413600417       -0.90078280550022
C           -0.29466365458202       -2.42944128990793       -0.67630804650720
C            0.29982848938791       -2.42869757229752        0.67670637895465
C            1.04021120750819       -3.54835283810944        1.05646952077269
C            1.64141628381546       -3.63602353949548        2.29570132573246
C            1.49057120364905       -2.60129906175400        3.20391174145787
C            0.73787075635516       -1.49695911705105        2.86115124691585
C            0.14388605652126       -1.39205014647885        1.60455335272080
N           -0.60522111491823       -0.23947878361443        1.32659300512937
C           -1.91692011484831       -0.18074179774719        0.90081197340982
C           -2.80590706472710       -1.20775003175771        0.62003641377522
C           -4.07958250939168       -0.86590928832734        0.20803729956313
C           -4.47660503850255        0.46436856427800        0.09662609328355
C           -3.61195582573267        1.49020183644864        0.42178379243495
C           -2.32535948297947        1.17136688537170        0.83332623468859
C           -1.20496262316162        1.96018765486140        1.26038915414679
C           -0.99697801826254        3.32528229627722        1.39918180930227
C            0.23741061594754        3.76427455717070        1.83248785728523
C            1.26093536196256        2.86176158343040        2.10980116294535
C            1.07857473289826        1.49907834732941        1.97686521866031
C           -0.16759122588055        1.05139383314586        1.56352010062580
C           -1.03266417172968       -3.55073070323295       -1.05588649111159
H           -2.21327916662588       -4.51340150570264       -2.55256979707833
H           -1.94108125578009       -2.66527656549960       -4.18006746253537
H           -0.58223078162859       -0.70285418426980       -3.57430375742547
H           -1.88905645876073        0.80665924373340       -2.17228177009812
H           -2.22916974958227        3.22865973970058       -2.43241651535382
H           -0.42980276562176        4.82094573307390       -1.95104158071871
H            1.77754151397054        4.02761244756792       -1.16752342649001
H            3.91906998157714        2.52998026385723       -0.36215045545614
H            5.47853576439461        0.70189615583476        0.23285275329978
H            4.78822323678886       -1.63983975100548        0.02611973153126
H            2.52778681523413       -2.23718913240898       -0.72899274246932
H            1.16626324925178       -4.35134302400094        0.34367208915009
H            2.22287231275737       -4.50826349781594        2.55331018322296
H            1.94674771891325       -2.66045201827199        4.18050230243156
H            0.58372702470489       -0.70102366098191        3.57441601127822
H           -2.52302331042476       -2.24243876077815        0.72936236144709
H           -4.78472718211981       -1.65002252912946       -0.02584130615226
H           -5.48001914585781        0.69020581419286       -0.23295763999158
H           -3.92444314780700        2.52170046117742        0.36173946035854
H           -1.78610331633580        4.02401627166072        1.16686095781710
H            0.41954924750311        4.82217127740293        1.95024635134541
H            2.22229890094503        3.23379500145541        2.43188155788649
H            1.88733760669816        0.81103394532461        2.17214506957148
H           -1.15700916691097       -4.35386944070191       -0.34295659127252
