62
 energy: -95.148527218522 gnorm: 0.000051914874 xtb: 6.7.1 (edcfbbe)
C            3.65326802683654       -2.05096277755505       -1.95411378575864
C            2.55169779346591       -2.17627370936719       -2.79947999725036
C            1.42624005456833       -1.41471811584617       -2.55745037364703
C            1.36339497467995       -0.54352673551567       -1.47486680417076
N            0.21848502676177        0.25215766965201       -1.33497215371308
C           -1.08038877551898       -0.20181026977507       -1.45404954039164
C           -1.55006343299392       -1.50353283411007       -1.54524367810227
C           -2.92994136733477       -1.68832135200551       -1.63794187436511
C           -3.80147997964780       -0.61046632772090       -1.61382381355003
C           -3.33938217280613        0.69523917776312       -1.49628567759781
C           -1.96673426275167        0.90324270935839       -1.40230271039440
C           -1.15669770366325        2.07007853758426       -1.24450890805644
C           -1.43837702340639        3.43193775946651       -1.16682768724849
C           -0.38541988987827        4.32019384966871       -1.07221237985543
C            0.93906348178395        3.87997810835825       -1.08646872079241
C            1.24673802124987        2.53107487824099       -1.17851653798626
C            0.19759842688582        1.62802797176473       -1.22870212327731
C            2.46571798695120       -0.42463000369126       -0.59011430741092
C            2.46501450215275        0.41745426353899        0.59850782282894
C            3.60455956225843        1.18011718984750        0.89482201251378
C            3.65269530634131        2.04080125132101        1.96591116661534
C            2.54846156566041        2.17001603036302        2.80721385870197
C            1.42158847205478        1.41168178969871        2.56168145245659
C            1.35998444940331        0.54003291669693        1.47939793282286
N            0.21348810073966       -0.25269917730907        1.33598614542126
C            0.18969913223641       -1.62856018177770        1.23013839555381
C            1.23689684420766       -2.53410492093366        1.18463878741822
C            0.92639805322046       -3.88233427205674        1.09216761284316
C           -0.39905840106844       -4.31940478694385        1.07280119605073
C           -1.45028364180699       -3.42858924989218        1.16269634147190
C           -1.16568037740244       -2.06736959481315        1.24085786319852
C           -1.97351131319081       -0.89852359103443        1.39518969652764
C           -3.34600580718012       -0.68721669870954        1.48387400740524
C           -3.80541770007164        0.61961374139239        1.59949782428375
C           -2.93137994482573        1.69536025935210        1.62696404417005
C           -1.55161373461942        1.50726113761159        1.53950603060335
C           -1.08469777824750        0.20440700109263        1.45013484363376
C            3.60393697547593       -1.19069539121099       -0.88274799178264
H            4.54431159199381       -2.63179759064072       -2.13927985853109
H            2.58306305673283       -2.84465065715597       -3.64538767701693
H            0.58871981482148       -1.45504246552168       -3.23872929277329
H           -0.87817926620087       -2.34721708041661       -1.56194149418955
H           -3.31863538390809       -2.69152949828995       -1.71844751031270
H           -4.86414451010582       -0.78950341348242       -1.68877504551346
H           -4.02414341109456        1.52782329625859       -1.47691065106764
H           -2.46051904750916        3.77739482474268       -1.17899142439682
H           -0.58493126286785        5.37973270415360       -1.00426691494643
H            1.73979746777468        4.60155511955472       -1.03850814738043
H            2.27305875069390        2.20715710792441       -1.22913414883032
H            4.45403391149322        1.11146577837060        0.23021083587115
H            4.54486151578549        2.61898000451110        2.15396921009045
H            2.57883526651204        2.83886230733939        3.65278781181391
H            0.58182277362000        1.45488140159799        3.24001020103403
H            2.26376248614014       -2.21254691487822        1.23916040602893
H            1.72559629665660       -4.60584710293526        1.04788631909366
H           -0.60081622341816       -5.37850530786725        1.00471282972438
H           -2.47327265281953       -3.77163966461870        1.17102230387802
H           -4.03269113912833       -1.51814851439620        1.46190598274970
H           -4.86792873114769        0.80120839175202        1.67032997764636
H           -3.31796756374459        2.69950239544983        1.70597484405898
H           -0.87777238218157        2.34932541653759        1.55879686515961
H            4.45125874176455       -1.12499030445334       -0.21509494946128
