  75
  -108.618211488000       0.392152082745580      !
 C          4.6436060445        0.5488433591       -2.1800459863
 C          4.3358310617        1.3010799516       -0.8650370943
 C          5.3791629249        2.4038404722       -0.6868902411
 C          4.3638190104        0.2816488449        0.2534718242
 C          5.4473895397        0.0861526193        1.0938598029
 C          5.4533770212       -0.9287805312        2.0366449929
 C          4.3567176780       -1.7672929883        2.1569377227
 C          3.2597899308       -1.5827591566        1.3434942522
 C          3.2535873772       -0.5658620101        0.3859138855
 N          2.1213053213       -0.3542967286       -0.3869584900
 C          1.2382352612       -1.4183855169       -0.6107735903
 C          1.6983373443       -2.6121965419       -1.1415291616
 C          0.7860714167       -3.6146951002       -1.4541531205
 C         -0.5947907306       -3.4181136317       -1.2229671403
 C         -1.5948036843       -4.3477396538       -1.5138587768
 C         -2.9399119520       -4.0667613808       -1.2460023885
 C         -3.3059997643       -2.8732229035       -0.6721051134
 C         -2.3245055136       -1.9287086521       -0.3301056699
 N         -2.6593734839       -0.6813833833        0.2402338171
 C         -2.1518025326       -0.3898343106        1.4898706644
 C         -1.5503984550       -1.4105007503        2.2415084667
 C         -1.0172746824       -1.1563349101        3.4840341197
 C         -1.0978729849        0.1186075029        4.0215394544
 C         -1.7357067159        1.1165925210        3.3077878764
 C         -2.2690730807        0.8914869398        2.0466232895
 C         -2.9872531842        2.0128836286        1.3300535106
 C         -4.2350155285        2.3965156041        2.1491936209
 C         -2.0347549396        3.2177339505        1.2189431286
 C         -3.4315423657        1.5988913915       -0.0558225015
 C         -4.0491700919        2.5282085489       -0.8816519756
 C         -4.4493324081        2.2156685243       -2.1677309342
 C         -4.2150334963        0.9420195163       -2.6607267055
 C         -3.6139223185       -0.0029230974       -1.8601089645
 C         -3.2368960818        0.2982677781       -0.5438722648
 C         -0.9568940640       -2.1792903911       -0.6078547751
 N         -0.0601652608       -1.2514240769       -0.2986696032
 C          1.8574155357        0.9318461087       -0.8416401304
 C          0.5571782721        1.3379628890       -1.1451444461
 C          0.2993173673        2.6376974261       -1.5278890651
 C          1.3358004580        3.5521777778       -1.6053307661
 C          2.6343192016        3.1437436348       -1.3439481891
 C          2.9230385518        1.8375327137       -0.9860423075
 H          4.5933214849        1.2347942016       -3.0228917107
 H          3.9244728754       -0.2495386716       -2.3434362962
 H          5.6403722058        0.1148146136       -2.1366274574
 H          5.3577015404        3.0844444513       -1.5336286908
 H          5.1982943262        2.9654176733        0.2269294353
 H          6.3772964990        1.9760501293       -0.6491538979
 H          6.3134256697        0.7234105338        1.0195951967
 H          6.3143246159       -1.0641382639        2.6732088663
 H          4.3525662522       -2.5572059084        2.8926260706
 H          2.3879582388       -2.2098783094        1.4472941308
 H          2.7514568462       -2.7348546472       -1.3464502682
 H          1.1204412458       -4.5285098162       -1.9193371565
 H         -1.3172432855       -5.3041944936       -1.9303268430
 H         -3.6915951725       -4.8054711778       -1.4801065361
 H         -4.3387297844       -2.6540328074       -0.4448144755
 H         -1.5142217861       -2.4089133615        1.8384899670
 H         -0.5469185326       -1.9537399668        4.0394925567
 H         -0.6832746808        0.3302153400        4.9952880593
 H         -1.8174687286        2.0963307434        3.7524144311
 H         -3.9577434883        2.6935815054        3.1568845053
 H         -4.9116416928        1.5464599585        2.2157661849
 H         -4.7642973373        3.2213455950        1.6800865116
 H         -1.7887725815        3.6060300255        2.2027610742
 H         -2.4859948748        4.0211412050        0.6447423497
 H         -1.1136653888        2.9142912726        0.7271792401
 H         -4.2243744251        3.5288627764       -0.5166069554
 H         -4.9273996712        2.9625033721       -2.7827920533
 H         -4.4975788482        0.6863825606       -3.6707358433
 H         -3.4183190923       -0.9880407457       -2.2506562102
 H         -0.2472466595        0.6258293494       -1.0601299297
 H         -0.7118478847        2.9315942269       -1.7691639956
 H          1.1423902993        4.5742638030       -1.8937831169
 H          3.4277070122        3.8664617146       -1.4422234643
  75
  -108.618180526200       0.379511960839593      !
 C          4.5644854103        0.3704519730       -2.3249810831
 C          4.4827440419        1.1428208690       -0.9886492444
 C          5.6244333011        2.1577845526       -0.9518880476
 C          4.5646787192        0.1264161958        0.1295193227
 C          5.7113236738       -0.1342150586        0.8611996779
 C          5.7439470826       -1.1443512632        1.8085842472
 C          4.6129805247       -1.9105335649        2.0430563277
 C          3.4554528729       -1.6592766875        1.3385117345
 C          3.4209770804       -0.6466473398        0.3777194731
 N          2.2329664578       -0.3601589378       -0.2830456403
 C          1.3234845169       -1.3916787622       -0.5292306830
 C          1.7718969945       -2.5950581086       -1.0531474811
 C          0.8485464010       -3.5739435387       -1.3984977320
 C         -0.5327041531       -3.3487089865       -1.2043999949
 C         -1.5350720225       -4.2647171549       -1.5276715621
 C         -2.8833597132       -3.9683510870       -1.2937075759
 C         -3.2449983528       -2.7730787035       -0.7260877938
 C         -2.2610643767       -1.8376684345       -0.3511445535
 N         -2.6370394492       -0.5940285250        0.1925511419
 C         -2.1908457930       -0.2503793489        1.4528052848
 C         -1.4573312278       -1.1799728517        2.2048718223
 C         -0.9690037820       -0.8563182715        3.4502683035
 C         -1.2287431183        0.3924132770        3.9911106772
 C         -2.0078513587        1.2887902625        3.2825565064
 C         -2.5011067258        0.9944588143        2.0193996857
 C         -3.4056631128        1.9885330864        1.3249729072
 C         -4.7042479638        2.1156741464        2.1448526330
 C         -2.6905061530        3.3498254459        1.2517324140
 C         -3.7625508920        1.5386521287       -0.0746886100
 C         -4.5288648649        2.3643784910       -0.8856434684
 C         -4.8507456837        2.0216147787       -2.1859796377
 C         -4.3720156366        0.8323871737       -2.7116719406
 C         -3.6232761845       -0.0129883100       -1.9244729370
 C         -3.3414444881        0.3028634829       -0.5874660690
 C         -0.8884809985       -2.1036795542       -0.5946433269
 N          0.0194535247       -1.1955645973       -0.2573502951
 C          2.0072698579        0.9574315049       -0.6709603083
 C          0.7133317625        1.4640762990       -0.7854273964
 C          0.5105483755        2.7901626828       -1.1052285360
 C          1.5947204665        3.6288558818       -1.3002549113
 C          2.8814604162        3.1214974963       -1.2183469541
 C          3.1117463018        1.7869664772       -0.9297905578
 H          4.4753562401        1.0616147910       -3.1605131605
 H          3.7647016955       -0.3615223620       -2.3984870155
 H          5.5179836075       -0.1488488012       -2.3972171575
 H          5.5480909940        2.8412978424       -1.7932753745
 H          5.6085468109        2.7286543270       -0.0262500353
 H          6.5812303723        1.6498876112       -1.0396894872
 H          6.6044941828        0.4458079497        0.6949806248
 H          6.6523730224       -1.3332066545        2.3597938176
 H          4.6317008446       -2.6964464054        2.7828044425
 H          2.5603718894       -2.2312733846        1.5289499132
 H          2.8270197756       -2.7401312081       -1.2308280245
 H          1.1756443930       -4.4923017913       -1.8600447365
 H         -1.2567025862       -5.2229175509       -1.9393085028
 H         -3.6385711383       -4.6965941257       -1.5480457987
 H         -4.2799117727       -2.5392656165       -0.5246248982
 H         -1.2872784953       -2.1652353341        1.8068145527
 H         -0.3951943004       -1.5824464745        4.0060801296
 H         -0.8505339702        0.6576465843        4.9664754424
 H         -2.2392293491        2.2404735832        3.7351791198
 H         -4.4866701103        2.4221427781        3.1643210529
 H         -5.2187350594        1.1571088639        2.1772756917
 H         -5.3705650608        2.8486979897        1.6984112532
 H         -2.5373427486        3.7597502555        2.2455097085
 H         -3.2713899126        4.0669979307        0.6796070875
 H         -1.7195340444        3.2293620487        0.7774886870
 H         -4.8889179137        3.3047326006       -0.4968607008
 H         -5.4529015728        2.6846968090       -2.7877441171
 H         -4.5800947439        0.5647103876       -3.7364229555
 H         -3.2385110840       -0.9289433123       -2.3412926988
 H         -0.1191687488        0.8008354580       -0.6130055745
 H         -0.4960680847        3.1681317061       -1.2097331996
 H          1.4428698341        4.6702529356       -1.5405703449
 H          3.7089243391        3.7871684033       -1.4022073020
  75
  -108.617039669400       0.113481216866584      !
 C          5.0389695804        2.1216657546       -0.1722483065
 C          3.6318434026        1.7689351199        0.3438277944
 C          3.1976418989        2.7636706161        1.4354188346
 C          3.6651460400        0.3794328351        0.9462532644
 C          4.4801935240        0.1286851046        2.0416037115
 C          4.5311547494       -1.1120178647        2.6492052365
 C          3.7409535418       -2.1392520987        2.1608661700
 C          2.9262709376       -1.9192029553        1.0725938972
 C          2.8822124521       -0.6684842933        0.4462735880
 N          2.0636291407       -0.4837357436       -0.6513449173
 C          1.1455767930       -1.5015250221       -1.0039940173
 C          1.4894646200       -2.6132474583       -1.7445441290
 C          0.5133004043       -3.5711124965       -2.0209916893
 C         -0.7980045825       -3.4181814391       -1.5159239080
 C         -1.8259430379       -4.3572682820       -1.6491172449
 C         -3.0737797242       -4.1441143204       -1.0581592932
 C         -3.3368594395       -2.9877700462       -0.3595366367
 C         -2.3442022343       -2.0035826834       -0.2348270539
 N         -2.5549851867       -0.7417605598        0.3615830571
 C         -1.6074093122       -0.3433234163        1.2809070439
 C         -0.8718291023       -1.3287841647        1.9669804334
 C          0.1524553193       -0.9868232027        2.8172487726
 C          0.4574390452        0.3499463202        3.0235016266
 C         -0.3152366777        1.3251757288        2.4168998607
 C         -1.3578763643        1.0074497578        1.5589139853
 C         -2.1876152501        2.1076277469        0.9420434363
 C         -2.8130934232        2.9460936226        2.0724557877
 C         -1.2666365104        2.9825847353        0.0705747036
 C         -3.2857779684        1.5544898886        0.0598006330
 C         -4.1832221306        2.4335506732       -0.5324368825
 C         -5.1615710166        2.0046100222       -1.4091397907
 C         -5.2288903052        0.6619260579       -1.7419078441
 C         -4.3482663903       -0.2310077872       -1.1726038733
 C         -3.3901250752        0.1881871936       -0.2407600610
 C         -1.0480670102       -2.2290378242       -0.7672071972
 N         -0.1006761903       -1.3300691294       -0.5339264158
 C          1.9181171063        0.7531067709       -1.2459716529
 C          1.0357115538        0.8937723076       -2.3241374654
 C          0.8690186130        2.1100933003       -2.9494380216
 C          1.5895917902        3.2111838929       -2.5169601527
 C          2.4709556854        3.0727455399       -1.4601250822
 C          2.6536573556        1.8613145426       -0.8083561749
 H          5.0560828621        3.1219205816       -0.5960372294
 H          5.3375175825        1.4160262074       -0.9450338217
 H          5.7678465246        2.0780173034        0.6321910354
 H          3.1535713948        3.7756750642        1.0431344139
 H          2.2118884866        2.4869895254        1.8004848748
 H          3.8925022549        2.7533732968        2.2702071245
 H          5.0953702339        0.9220554794        2.4386446760
 H          5.1777773311       -1.2733061226        3.4981811798
 H          3.7600278915       -3.1126165070        2.6280444044
 H          2.3056883360       -2.7164599082        0.6967233352
 H          2.5009509915       -2.7265287185       -2.1039693533
 H          0.7522035000       -4.4334563908       -2.6228871137
 H         -1.6267584058       -5.2819418498       -2.1692843651
 H         -3.8340334331       -4.9065333068       -1.1385387821
 H         -4.2851690902       -2.8449383987        0.1371970626
 H         -1.1244692319       -2.3660192286        1.8154247255
 H          0.7217572329       -1.7565894549        3.3150928002
 H          1.2780011561        0.6280481704        3.6674898067
 H         -0.0933791139        2.3622814611        2.6178639959
 H         -2.0461010947        3.3314201810        2.7376555387
 H         -3.4960183943        2.3314627888        2.6558130957
 H         -3.3662217181        3.7902027435        1.6718224679
 H         -0.4904343583        3.4441281908        0.6738896195
 H         -1.8331175025        3.7680058082       -0.4218529355
 H         -0.7885726181        2.3708808193       -0.6905227521
 H         -4.1133450193        3.4881650960       -0.3148841323
 H         -5.8488210273        2.7137737141       -1.8441939952
 H         -5.9634725148        0.3101086590       -2.4503310915
 H         -4.3886348923       -1.2676614565       -1.4601941758
 H          0.4830322872        0.0346548735       -2.6681198053
 H          0.1804001549        2.1974728007       -3.7766048322
 H          1.4713573549        4.1680088158       -3.0018228787
 H          3.0318458677        3.9381658824       -1.1414813290
  75
  -108.616456466700       6.122130466522482E-002 !
 C          4.9055183565        2.3072894167       -0.4075504907
 C          3.3798807856        2.1737393699       -0.5620388457
 C          2.6970490607        3.5396560742       -0.3581080471
 C          2.8643028598        1.2206678220        0.4946509638
 C          3.1018975360        1.4921126778        1.8348580172
 C          2.6580421008        0.6546614011        2.8429674123
 C          1.9761188289       -0.5038319524        2.5102495196
 C          1.7345574719       -0.8015315429        1.1871466990
 C          2.1432641695        0.0657462003        0.1632623330
 N          1.8481350046       -0.2420326983       -1.1526401316
 C          0.9590534451       -1.3126385679       -1.3814460297
 C          1.2986482301       -2.4469294719       -2.0913103905
 C          0.3753296922       -3.4864799443       -2.1914036545
 C         -0.8788135294       -3.3890102412       -1.5462562011
 C         -1.8690379517       -4.3738891930       -1.5633690210
 C         -3.0668983513       -4.2044879230       -0.8612224367
 C         -3.2953560560       -3.0626100185       -0.1286095382
 C         -2.3358156298       -2.0412638275       -0.1115208531
 N         -2.4658937070       -0.8740825672        0.6771601180
 C         -2.1754853814       -0.9379102627        2.0279689995
 C         -2.1146132042       -2.1861502014        2.6614096802
 C         -1.8400488636       -2.2876291773        4.0066588899
 C         -1.6113947920       -1.1420943998        4.7519166513
 C         -1.6483514772        0.0904872058        4.1276808446
 C         -1.9220137189        0.2223216509        2.7729565962
 C         -1.9147068829        1.5988981955        2.1452668108
 C         -2.9993275250        2.4579333905        2.8229506336
 C         -0.5262483339        2.2321784606        2.3486017330
 C         -2.1957550820        1.5405461024        0.6614689904
 C         -2.2015362795        2.7109485203       -0.0839727403
 C         -2.4615121625        2.7121643115       -1.4421909664
 C         -2.7510926145        1.5164823969       -2.0818938201
 C         -2.7576815692        0.3428070354       -1.3653101928
 C         -2.4538086777        0.3294786742        0.0047370682
 C         -1.1272696260       -2.1715499155       -0.8389510052
 N         -0.2547119154       -1.1737103453       -0.8120853326
 C          2.2807169612        0.5519610139       -2.1983196745
 C          1.9227053534        0.2295222937       -3.5134492499
 C          2.3672986616        0.9830080930       -4.5768498601
 C          3.1732295462        2.0865881684       -4.3513538199
 C          3.4926578897        2.4353915693       -3.0523538724
 C          3.0585408693        1.6939412781       -1.9619855033
 H          5.3124159582        2.9976698671       -1.1403969761
 H          5.3772993955        1.3369804758       -0.5497524111
 H          5.1653546678        2.6733129012        0.5812818879
 H          3.0528218072        4.2625407214       -1.0869960521
 H          1.6205048407        3.4311026146       -0.4767630456
 H          2.8975170022        3.9261792814        0.6371918832
 H          3.6446073134        2.3839468733        2.1078302386
 H          2.8538058565        0.8994080223        3.8755640509
 H          1.6333713919       -1.1790056212        3.2797524179
 H          1.2263362806       -1.7178187565        0.9423478597
 H          2.2819563333       -2.5331188100       -2.5288197197
 H          0.6343306297       -4.3953696249       -2.7111169252
 H         -1.7091319118       -5.2679983994       -2.1469355373
 H         -3.8182794990       -4.9786399766       -0.9013058776
 H         -4.2183762783       -2.9204970655        0.4138629157
 H         -2.2751052571       -3.0793598274        2.0804217956
 H         -1.7990125846       -3.2604971539        4.4731018891
 H         -1.3955811231       -1.2088031424        5.8073532041
 H         -1.4523877956        0.9728003337        4.7174621499
 H         -3.9764075420        1.9977727950        2.6879088738
 H         -3.0276047598        3.4550290622        2.3925359558
 H         -2.8073970716        2.5507320347        3.8881187392
 H          0.2192638001        1.6567503224        1.8072707647
 H         -0.2526884001        2.2449961095        3.3993360749
 H         -0.5116116194        3.2540886515        1.9807196652
 H         -1.9964493257        3.6523563799        0.4026453328
 H         -2.4503880540        3.6396708035       -1.9943546747
 H         -2.9773644892        1.5038081452       -3.1373671416
 H         -2.9998372433       -0.5863415577       -1.8554324507
 H          1.2783142744       -0.6156403325       -3.6911217438
 H          2.0823059091        0.7102544327       -5.5815157754
 H          3.5352728352        2.6801489861       -5.1765652236
 H          4.0920817525        3.3179855649       -2.8888982217
  75
  -108.615757496700       2.921986528758758E-002 !
 C          4.7465911052        0.6853254209       -2.3342599710
 C          4.2674932989        1.5231487588       -1.1262996259
 C          5.2495301284        2.6769469429       -0.9218673470
 C          4.2053729841        0.5900018436        0.0642461294
 C          5.2153404859        0.4776637603        1.0051841906
 C          5.1621830436       -0.4738327776        2.0107619808
 C          4.0814288417       -1.3374483182        2.0884553486
 C          3.0555423832       -1.2356491426        1.1743696905
 C          3.1043755199       -0.2760375180        0.1595194637
 N          2.0413520848       -0.1484525269       -0.7163577991
 C          1.1703994671       -1.2471864373       -0.8814122745
 C          1.6574176063       -2.4082331031       -1.4487872263
 C          0.8060598690       -3.5019530451       -1.6013278682
 C         -0.5353075158       -3.4099683102       -1.1779611645
 C         -1.4672194729       -4.4503515716       -1.2831738959
 C         -2.7752994520       -4.2944507914       -0.8243925713
 C         -3.1721103408       -3.1151157890       -0.2381848907
 C         -2.2597588565       -2.0547987913       -0.1081236511
 N         -2.6127512239       -0.8235499919        0.4901017568
 C         -2.7829723613       -0.7047336904        1.8529967107
 C         -3.0607742321       -1.8299592454        2.6349257706
 C         -3.3416100899       -1.6945194493        3.9777645787
 C         -3.3466284716       -0.4376287599        4.5595664442
 C         -3.0063190085        0.6733047689        3.8035809653
 C         -2.6990799500        0.5634926476        2.4583509937
 C         -2.1369240523        1.7027146222        1.6350793811
 C         -2.4086088366        3.0752723551        2.2497405349
 C         -0.6050170332        1.4889949205        1.5682642174
 C         -2.6501097098        1.5784515882        0.2198734558
 C         -2.9319010611        2.6569146810       -0.5998094191
 C         -3.2638177580        2.4790474451       -1.9341246287
 C         -3.2980226294        1.2035147927       -2.4757802859
 C         -3.0465810232        0.1116280910       -1.6740132097
 C         -2.7423946335        0.2837812645       -0.3193234142
 C         -0.9409089845       -2.1676952035       -0.5979497442
 N         -0.1039631175       -1.1327540509       -0.4649623281
 C          1.8092638111        1.0708767983       -1.3280457988
 C          0.5372249029        1.3980253442       -1.8016261425
 C          0.2917251681        2.6478576538       -2.3290599449
 C          1.3085418502        3.5854309121       -2.3897473588
 C          2.5831902757        3.2489528784       -1.9615968224
 C          2.8633429832        1.9942160018       -1.4477466223
 H          4.7860340733        1.3055069186       -3.2270305691
 H          4.0667072621       -0.1420164911       -2.5198817373
 H          5.7381930063        0.2828309512       -2.1387352466
 H          5.3026564845        3.2911209753       -1.8164323507
 H          4.9492218104        3.2973834069       -0.0806035557
 H          6.2500131293        2.2941501756       -0.7415453511
 H          6.0714519956        1.1309292950        0.9625172298
 H          5.9667630717       -0.5429383187        2.7266832616
 H          4.0338112526       -2.0831304289        2.8674440519
 H          2.1980830879       -1.8865588942        1.2405047534
 H          2.6861050553       -2.4539349312       -1.7738913673
 H          1.1697066235       -4.4214341566       -2.0319438157
 H         -1.1629563090       -5.3769508475       -1.7461475654
 H         -3.4803193689       -5.1042515105       -0.9392851598
 H         -4.1908994083       -2.9695175389        0.0896497718
 H         -3.0560258468       -2.8061214808        2.1786747767
 H         -3.5627891528       -2.5697415078        4.5696707498
 H         -3.5868352582       -0.3221089312        5.6053935504
 H         -2.9726371994        1.6343696331        4.2900719736
 H         -3.4771733854        3.2664487149        2.3223906265
 H         -1.9478979640        3.8531729980        1.6472592147
 H         -1.9675940428        3.1384087485        3.2406792527
 H         -0.1467807121        2.2886095265        0.9900222508
 H         -0.3714129515        0.5418357477        1.0861235517
 H         -0.1841410721        1.4894750841        2.5718145931
 H         -2.8875201830        3.6608773863       -0.2107418686
 H         -3.4858336202        3.3373442099       -2.5505941013
 H         -3.5361643876        1.0606359733       -3.5190641847
 H         -3.0994537066       -0.8880269151       -2.0763262551
 H         -0.2575596048        0.6752923587       -1.7297668007
 H         -0.6985516890        2.8885663781       -2.6836492996
 H          1.1206356731        4.5704766639       -2.7894927242
 H          3.3644460485        3.9859867508       -2.0499398747
  75
  -108.615163421400       1.558332415554389E-002 !
 C          4.6438667983        0.5905990291       -2.1165687474
 C          4.6032730095        1.1085450411       -0.6617675798
 C          5.8079212399        2.0235487716       -0.4472132122
 C          4.6072074044       -0.0926342396        0.2584474167
 C          5.7186815612       -0.5377605417        0.9549022863
 C          5.6688510190       -1.6882665960        1.7241902506
 C          4.4882502807       -2.4082942875        1.8151517094
 C          3.3656851300       -1.9755641087        1.1424299955
 C          3.4153996779       -0.8241239041        0.3551356194
 N          2.2643727186       -0.3582615611       -0.2763531254
 C          1.3117134839       -1.2954283965       -0.6832167154
 C          1.7360978230       -2.4313818180       -1.3581183218
 C          0.8146913745       -3.4086149324       -1.7033381921
 C         -0.5408814893       -3.2644722688       -1.3355990528
 C         -1.5064183915       -4.2553918616       -1.5257902245
 C         -2.8223918161       -4.0691483303       -1.0919235322
 C         -3.1956674224       -2.8856481972       -0.5098301450
 C         -2.2564969875       -1.8502689450       -0.3146789849
 N         -2.6917169320       -0.5921692632        0.1340070397
 C         -2.0318237450        0.0164734463        1.1793994751
 C         -1.0737163776       -0.7146515172        1.9044824391
 C         -0.2868368020       -0.0963365951        2.8513833402
 C         -0.4694392642        1.2476813871        3.1277226669
 C         -1.5020634539        1.9360971484        2.5113493293
 C         -2.2997259746        1.3453847263        1.5441093050
 C         -3.4973293609        2.0876289911        0.9928326982
 C         -4.5034886803        2.2630998542        2.1463747214
 C         -3.0739205833        3.4641383627        0.4498620390
 C         -4.1532798033        1.3265422249       -0.1381191894
 C         -5.2240804484        1.8999736907       -0.8107542550
 C         -5.7922423437        1.3090342110       -1.9237502667
 C         -5.2453315468        0.1360320189       -2.4170488389
 C         -4.1969580645       -0.4641905735       -1.7560729274
 C         -3.6755006817        0.0818013331       -0.5741977336
 C         -0.8932255793       -2.0439174721       -0.6739291261
 N          0.0140573654       -1.1232836958       -0.3642196735
 C          2.1192249247        1.0215166461       -0.3851614733
 C          0.8621105548        1.6208385481       -0.3704781336
 C          0.7516698922        2.9957728367       -0.3660937359
 C          1.8878294943        3.7855795346       -0.3823022392
 C          3.1381580309        3.1921214056       -0.4447900163
 C          3.2766059110        1.8152016577       -0.4663580021
 H          4.6070261787        1.4278489885       -2.8104675402
 H          3.7986105777       -0.0609025074       -2.3201709552
 H          5.5619169965        0.0319184612       -2.2872783170
 H          5.7780927313        2.8548274124       -1.1467872678
 H          5.8259281284        2.4127138795        0.5682492636
 H          6.7298344746        1.4793883339       -0.6351934412
 H          6.6472499376        0.0067896265        0.8993428717
 H          6.5503657581       -2.0208547217        2.2506082112
 H          4.4401181265       -3.3012243131        2.4200256520
 H          2.4355508079       -2.5160981431        1.2261564858
 H          2.7796563046       -2.5387898349       -1.6131432369
 H          1.1242492424       -4.2828497746       -2.2538879645
 H         -1.2095856362       -5.1947470037       -1.9668218297
 H         -3.5411624999       -4.8657916332       -1.2102662412
 H         -4.2066747778       -2.7304255387       -0.1632161010
 H         -0.9918222610       -1.7762135850        1.7485903533
 H          0.4641475964       -0.6646221053        3.3791516428
 H          0.1525526380        1.7474178705        3.8543436256
 H         -1.6863850073        2.9574019569        2.8066114762
 H         -4.0594826168        2.8373395320        2.9550834720
 H         -4.7959385673        1.2899769795        2.5361744567
 H         -5.3967751484        2.7789677986        1.8047355205
 H         -2.4686065415        3.3340934183       -0.4444978857
 H         -2.4967482542        4.0151260626        1.1858298899
 H         -3.9426132886        4.0613422683        0.1889382339
 H         -5.6250124192        2.8399371128       -0.4645228953
 H         -6.6295936795        1.7760909013       -2.4185504354
 H         -5.6327976405       -0.3114642896       -3.3196869573
 H         -3.7646548561       -1.3635785969       -2.1608683660
 H         -0.0125024320        0.9935511999       -0.3415834380
 H         -0.2242576458        3.4541758009       -0.3401751204
 H          1.8048118080        4.8619080603       -0.3669139569
 H          4.0086793387        3.8262843519       -0.4864630579
  75
  -108.614626640700       8.830245439887400E-003 !
 C          3.4603786464        0.4250992367       -3.0458854990
 C          3.9757909880        1.2205673624       -1.8280186021
 C          4.9666307149        2.2706041829       -2.3278214138
 C          4.6024990682        0.2471106084       -0.8508759500
 C          5.9635349932        0.1058120656       -0.6382652150
 C          6.4524751236       -0.8405798307        0.2476201583
 C          5.5764722962       -1.6544020244        0.9483595723
 C          4.2163437456       -1.5219724782        0.7614470675
 C          3.7230085761       -0.5832527824       -0.1430861065
 N          2.3475547898       -0.3856713728       -0.2852772438
 C          1.4683079696       -1.4548398852       -0.3728086470
 C          1.9031496753       -2.7182027946       -0.7494719887
 C          0.9787184263       -3.7520430847       -0.8467242363
 C         -0.3868136841       -3.5097712163       -0.5966094043
 C         -1.3805452258       -4.4880051651       -0.6920818835
 C         -2.7237262915       -4.1779249360       -0.4373352784
 C         -3.0843510307       -2.9047028171       -0.0883862515
 C         -2.1141581115       -1.8757608474       -0.0188939938
 N         -2.5208331131       -0.5985103786        0.4056608234
 C         -3.0744665777       -0.4708859093        1.6652613259
 C         -3.0319614972       -1.5576452155        2.5526815474
 C         -3.6246479580       -1.4859057899        3.7927753781
 C         -4.2634850587       -0.3207178275        4.1860422790
 C         -4.2538814333        0.7745122374        3.3415458554
 C         -3.6536723216        0.7333594893        2.0907583210
 C         -3.6175778171        1.9807308453        1.2366964536
 C         -5.0597459410        2.3710145916        0.8599845796
 C         -2.9630645173        3.1078844068        2.0571046305
 C         -2.8407240502        1.7613329868       -0.0442673780
 C         -2.6543646180        2.8242465087       -0.9175152715
 C         -2.0109505171        2.6705893063       -2.1312926177
 C         -1.5884029541        1.4100096547       -2.5202927686
 C         -1.7839807313        0.3327658737       -1.6870715733
 C         -2.3667975990        0.4961031348       -0.4223203083
 C         -0.7451902845       -2.1593698722       -0.2743986806
 N          0.1565981296       -1.1886960450       -0.1951743418
 C          1.9585118571        0.9549876944       -0.3818817030
 C          0.8387041528        1.4420713430        0.2833263505
 C          0.5162510138        2.7815092922        0.2013819353
 C          1.3172593772        3.6455686283       -0.5237015305
 C          2.4453135864        3.1662925444       -1.1691973815
 C          2.7826129867        1.8253510099       -1.1130755526
 H          2.9747801550        1.0993137491       -3.7483267648
 H          2.7423256493       -0.3320743199       -2.7453814887
 H          4.2919339949       -0.0658780630       -3.5476812688
 H          4.4839210172        2.9316627104       -3.0431003529
 H          5.3559855459        2.8628123256       -1.5028363437
 H          5.7949159125        1.7882448254       -2.8408884987
 H          6.6644047535        0.7311877535       -1.1671394762
 H          7.5173683619       -0.9392555572        0.3928272154
 H          5.9532190419       -2.3834107086        1.6497961385
 H          3.5223227960       -2.1299769182        1.3219411847
 H          2.9430155774       -2.8971185992       -0.9705640587
 H          1.3013113122       -4.7480892044       -1.1077769346
 H         -1.1046555477       -5.4858300196       -0.9972988799
 H         -3.4738744745       -4.9487790915       -0.5303333571
 H         -4.1157131451       -2.6467428933        0.1012363448
 H         -2.5148621261       -2.4561900347        2.2592831813
 H         -3.5829833168       -2.3368398375        4.4554856221
 H         -4.7440961204       -0.2570121902        5.1499646123
 H         -4.7286337383        1.6849613480        3.6733175660
 H         -5.6623873060        2.5216526056        1.7515704125
 H         -5.5154508724        1.5808370026        0.2662341630
 H         -5.0705565187        3.2877579591        0.2770521763
 H         -1.9802331811        2.7918358487        2.4011656871
 H         -3.5654934635        3.3540757978        2.9265490447
 H         -2.8513603062        4.0093247972        1.4619674810
 H         -3.0230169388        3.8030688579       -0.6509602467
 H         -1.8645546574        3.5222917787       -2.7774716207
 H         -1.1191624236        1.2651431930       -3.4815333593
 H         -1.4930846401       -0.6499488007       -2.0127187790
 H          0.2331404862        0.7609810339        0.8561743395
 H         -0.3535196259        3.1554996516        0.7163339808
 H          1.0709218159        4.6950670023       -0.5837125228
 H          3.0579850202        3.8579127669       -1.7244650931
