56
 energy: -95.506521144225 gnorm: 0.000071415393 xtb: 6.7.1 (edcfbbe)
N           -4.64364407021698        7.12513463052901        0.63709827025571
C           -4.08652881540393        6.12693393892739        0.55443511349734
C           -3.39172598948836        4.89933019157069        0.45371559381926
C           -2.32842575816229        4.77382019369199       -0.44112894051997
C           -1.65060171779885        3.57649105423024       -0.53375429826771
C           -2.02384058123981        2.48657692904645        0.25169466052428
C           -1.29258899884046        1.21532344057022        0.13601673979891
C            0.09394705971560        1.20904570125631        0.14899734167252
C            0.80148514992500        0.01633520259389        0.02431597916508
N            2.20498629547757        0.02162639139817        0.03152196800246
C            2.91540312189156        0.49061560769061        1.14376383977330
C            2.28316674714744        0.92834505928088        2.30037127071547
C            3.01894965250980        1.37807985545767        3.38616286058679
C            4.39817974639323        1.38596938709653        3.33903044123858
C            5.04518570780761        0.91888391676121        2.20535228691671
C            4.31591158766657        0.46691478113148        1.12066930829089
O            5.02843915126576       -0.01526069477736        0.05273174313064
C            4.32053718916911       -0.47599509861745       -1.02706036123633
C            5.05345193975895       -0.94467058583689       -2.10230158555751
C            4.41120762707824       -1.39130526894097       -3.24689171288570
C            3.03356061876279       -1.34496945952568       -3.31521124459253
C            2.29437041172517       -0.87851247565872       -2.23888900673698
C            2.92051751023257       -0.46275774512054       -1.07064744876077
C            0.10998188056971       -1.18481932033677       -0.11243103301062
C           -1.27574185086439       -1.20944951808954       -0.12851067289461
C           -1.98576400822684       -2.49035355896434       -0.26292945485405
C           -1.58982650977175       -3.40569401500696       -1.23756914107954
C           -2.24363627855735       -4.61206242179642       -1.37501156162688
C           -3.30510365764520       -4.92444948998105       -0.52483916289514
C           -3.97332527604568       -6.16372283522707       -0.65731594413208
N           -4.50881289582211       -7.17151461067829       -0.76326603376561
C           -3.70105058192429       -4.01877113212150        0.45958129981864
C           -3.04415981261622       -2.81240516584550        0.58504458156180
C           -1.98241962056831       -0.00012027705547       -0.01048581364024
C           -3.38864064372701        0.00635450323972       -0.14840825118017
N           -4.52606508555758        0.01693567421434       -0.29915723171471
C           -3.08350005915769        2.62212899353375        1.14694251971079
C           -3.76438223384292        3.81727879372118        1.25138991190774
H           -2.04516091837574        5.61455065626194       -1.05685515764242
H           -0.83742850810660        3.47304275364645       -1.23721180813805
H            0.63212731372056        2.13882571961718        0.25860201112581
H            1.20633723217990        0.90912048111937        2.36310876894887
H            2.50004723659328        1.71671658203701        4.26945112913987
H            4.97503939286067        1.73863262249223        4.17897748413656
H            6.12108954349793        0.88927752872269        2.14336036833156
H            6.12869941338140       -0.94468833995688       -2.02424379180051
H            4.99079657251303       -1.75757320063069       -4.07909381272715
H            2.51950955449310       -1.66529954817353       -4.20824432432822
H            1.21948535991397       -0.82607007400157       -2.31775737097506
H            0.66245777942329       -2.11013677915080       -0.18107589480548
H           -0.77630126614169       -3.15848857816624       -1.90397612107740
H           -1.94200793039888       -5.31689935729050       -2.13553030863281
H           -4.51932538561073       -4.26774893536569        1.11825125112379
H           -3.34361976091087       -2.12097629190536        1.35822963977529
H           -3.36659024511824        1.79116860591885        1.77551126993820
H           -4.58465033553199        3.92125458242946        1.94547083656244
