56
 energy: -95.423898354678 gnorm: 0.000106438421 xtb: 6.7.1 (edcfbbe)
N           -3.13787411328279        7.74646267181071       -0.85339630351034
C           -2.77088868724542        6.66767606023191       -0.71310305110268
C           -2.30674912228090        5.34752220982795       -0.54523753517128
C           -2.95828950212428        4.28322991220941       -1.17640293782402
C           -2.49672000478258        2.99756152095934       -1.01018274963829
C           -1.37453780901241        2.73514052844529       -0.21732998075813
C           -0.87049615098613        1.37468717964266       -0.04770657843078
C            0.48936413537120        1.13935573485233       -0.07510639647807
C            0.99162542846614       -0.15967272278032        0.03281806387060
N            2.38928331582609       -0.37449390588150       -0.02185270865098
C            3.20183378387666        0.16698063329502        0.94627980235835
C            2.70411790478955        0.87948021193484        2.04724562941046
C            3.55781017027756        1.41420935103073        2.97901140255708
C            4.94956597871632        1.24831490228181        2.85611805762002
C            5.46492915807750        0.51806373791415        1.80969176081477
C            4.61550574273145       -0.03555084673759        0.85672957073960
O            5.16131401811030       -0.78020651733934       -0.12835152920519
C            4.35288836200406       -1.32269899822456       -1.06359448156999
C            4.93518615431083       -2.08224181933122       -2.07380799469939
C            4.15609042867361       -2.61933524507645       -3.07291852955468
C            2.77032263011025       -2.37843791761129       -3.08955394849851
C            2.17687589757855       -1.63477411089352       -2.10042440513850
C            2.93772231150246       -1.11135190602057       -1.04509980795462
C            0.12190865632776       -1.24697890014070        0.16118590289554
C           -1.24379089347353       -1.05424741795406        0.20228305608786
C           -2.13953347900018       -2.20562216138505        0.30653463652302
C           -1.83244793925380       -3.26460744856418        1.16726241342572
C           -2.66053939480125       -4.35945520413968        1.26465786915249
C           -3.82218731573934       -4.42555617907933        0.48959469679816
C           -4.66661593731662       -5.55095431091550        0.57983915982295
N           -5.34461325139880       -6.47465941407689        0.64953149795081
C           -4.13522020151848       -3.37566834083402       -0.37880056257799
C           -3.30397706228639       -2.28176672755989       -0.46362177096348
C           -1.75948040621137        0.27341690893530        0.13370480665727
C           -3.11651360994483        0.50509108269455        0.36850309820919
N           -4.22917079979675        0.69890923669509        0.60621963848735
C           -0.72564236755258        3.80903486250125        0.40357010330197
C           -1.18335874150009        5.09710642200149        0.24908841356040
H           -3.82201849684389        4.47879164196992       -1.79411639178318
H           -2.99622179200188        2.18530855821808       -1.51572430146764
H            1.17655799975170        1.95642151165765       -0.23986474029205
H            1.63791291106584        0.99608517095813        2.15888382134131
H            3.15877617250611        1.96069004807008        3.81816463178220
H            5.60857527240613        1.67904882649632        3.59172966296907
H            6.52485634375848        0.35124706469520        1.70354509569602
H            6.00346168276163       -2.22620704749741       -2.04939120495701
H            4.60790639658906       -3.20920407983557       -3.85324246198754
H            2.17005990265181       -2.77578061455584       -3.89184427282431
H            1.11680292056073       -1.44053129493747       -2.13172643633872
H            0.53002209019006       -2.24535071042597        0.21933759798874
H           -0.94805607543270       -3.20910917244094        1.78566862150515
H           -2.42415326595694       -5.16892153948554        1.93990135607520
H           -5.03018295170227       -3.43053673361272       -0.98035976010659
H           -3.54557569251276       -1.48360105647045       -1.14889240061569
H            0.12976958639660        3.62147733824788        1.03696109762953
H           -0.68521724802060        5.91990284586167        0.74102010632048
