  98
       -136.42658646
 C          7.4125586230       -0.5038359321        0.4144158494
 C          5.9412000981       -0.2311459744        0.3263130909
 C          5.3032032627        0.5531314860        1.2783494765
 C          3.9523807447        0.8254632593        1.1837759823
 C          3.2007329815        0.3182610075        0.1300673051
 C          1.7545010728        0.6077979012        0.0292721693
 C          0.8316234587       -0.4517014900        0.0675975228
 C          1.3255589313       -1.8443167801        0.0893981597
 C          2.1197278500       -2.3026260240        1.1333086659
 C          2.5555209381       -3.6136929377        1.1588102494
 C          2.2179601164       -4.5018806348        0.1466270871
 C          2.6774236089       -5.9380066557        0.2000103983
 C          3.5575828021       -6.2779273504       -1.0044740621
 C          1.4755167910       -6.8820574736        0.2804616724
 C          1.4383674697       -4.0341686525       -0.9045254633
 C          0.9984903659       -2.7265082768       -0.9348450498
 C         -0.5288931645       -0.1874073554        0.0974981113
 C         -1.4404063073       -1.3502482649        0.0674507069
 C         -1.3857858764       -2.3436565806        1.0395598617
 C         -2.2065227663       -3.4518798152        0.9561907458
 C         -3.0958919139       -3.6090203191       -0.0984658397
 C         -3.9791038320       -4.8293528642       -0.1794479881
 C         -3.6225105216       -5.6687483045       -1.4082675312
 C         -5.4578255405       -4.4374400765       -0.1985263389
 C         -3.1414753203       -2.6181833735       -1.0724987845
 C         -2.3281911329       -1.5061732394       -0.9935060046
 C         -1.0042648345        1.1456683653        0.0438381665
 C         -0.0755897080        2.1854321062       -0.2335707180
 C         -0.5990048920        3.4539436231       -0.6552755178
 N          0.2293408651        4.4897575764       -1.0475004461
 C         -1.9547201226        3.6591989277       -0.6777576622
 C         -2.8795085939        2.7192547147       -0.1836129525
 C         -4.2895766710        2.9930712169       -0.1051354438
 C         -4.8587654631        4.1742136902       -0.6136098875
 C         -6.2092704957        4.4057929283       -0.5679978616
 C         -7.0656341299        3.4540263391       -0.0136061215
 C         -6.5462480301        2.2961308327        0.5020743482
 C         -5.1631753937        2.0444273236        0.4846407578
 C         -4.6049243702        0.8658688956        1.0722432564
 N         -5.4219992370       -0.0451724312        1.7283073486
 C         -3.2685773306        0.6077425886        0.9361308578
 C         -2.3936458706        1.4704028558        0.2429875956
 C          1.3103712648        1.9081276943       -0.1453064252
 C          2.3466336944        2.9631992284       -0.1701998028
 C          2.4012770691        3.9070537114        0.8523655672
 C          3.4178890643        4.8400913323        0.8901099254
 C          4.4061087117        4.8611390468       -0.0873990232
 C          5.5232248636        5.8580723568       -0.0225608958
 C          4.3460687480        3.9227140682       -1.1091688981
 C          3.3344769272        2.9818483682       -1.1501843630
 C          3.8354727622       -0.4720218574       -0.8215121415
 C          5.1869003432       -0.7393705454       -0.7235713087
 H          7.6490575227       -1.4878393750        0.0152919041
 H          7.7574659122       -0.4478011336        1.4443703997
 H          7.9643268416        0.2361370863       -0.1669645101
 H          5.8712704776        0.9548999483        2.1058495728
 H          3.4709661211        1.4316945505        1.9376852694
 H          2.3847668849       -1.6310216650        1.9373370131
 H          3.1660511741       -3.9532194576        1.9843056679
 H          3.2769008578       -6.0710155267        1.1080026095
 H          4.4075909114       -5.6007217734       -1.0531575399
 H          3.9298616548       -7.2971242633       -0.9242726234
 H          2.9957866021       -6.1903310559       -1.9309750608
 H          1.8096654939       -7.9123906059        0.3835796699
 H          0.8543811204       -6.6303921534        1.1376758486
 H          0.8657637611       -6.8065466793       -0.6165984376
 H          1.1640773518       -4.6979430061       -1.7113769678
 H          0.3931289360       -2.3812208046       -1.7608029760
 H         -0.7081354799       -2.2372519964        1.8745320073
 H         -2.1518033145       -4.2102166530        1.7254469307
 H         -3.7990850104       -5.4400812060        0.7129596074
 H         -3.8037240591       -5.1087869328       -2.3224577087
 H         -4.2234032867       -6.5754601045       -1.4349460125
 H         -2.5716318296       -5.9492475113       -1.3801859524
 H         -6.0839053634       -5.3271321772       -0.1776478347
 H         -5.6979615125       -3.8228374237        0.6664041706
 H         -5.6970739422       -3.8709800919       -1.0947097057
 H         -3.8195094340       -2.7132998839       -1.9076982647
 H         -2.3758910309       -0.7445370937       -1.7587490754
 H          1.1234907088        4.2419268308       -1.4372675030
 H         -0.2412751322        5.2398583618       -1.5291605600
 H         -2.3019660738        4.6099258287       -1.0523845945
 H         -4.2282878383        4.9225434526       -1.0667072761
 H         -6.6150210383        5.3222712995       -0.9717037603
 H         -8.1312408183        3.6310873614        0.0040742505
 H         -7.2151863225        1.5522100038        0.9088500874
 H         -6.1975766836        0.3441037118        2.2407060977
 H         -4.9149441004       -0.7460800730        2.2478236785
 H         -2.8728262100       -0.2687659672        1.4218032400
 H          1.6398299744        3.8993340572        1.6183407235
 H          3.4506778910        5.5625853151        1.6933892403
 H          5.1765850969        6.8027358382        0.3910690617
 H          5.9434697269        6.0369989386       -1.0096014427
 H          6.3200735556        5.4823426372        0.6205486396
 H          5.1042240191        3.9230775087       -1.8796971457
 H          3.3044322405        2.2568598943       -1.9512202581
 H          3.2658132448       -0.8730429598       -1.6476031263
 H          5.6649414929       -1.3530498340       -1.4744269481
