98
 energy: -136.425815415916 gnorm: 0.000039500431 xtb: 6.7.1 (edcfbbe)
C            7.05946551278447       -1.32250365344336        0.33323000693833
C            5.66850324625097       -0.77156951478251        0.23995775763955
C            5.16100351020741        0.06532050671877        1.22423200254114
C            3.87174873114169        0.55602981236265        1.14295916416768
C            3.05375697784586        0.22074032444973        0.07079282899302
C            1.67150915455633        0.73855977477215       -0.01665629052908
C            0.59260616416115       -0.16380870476617       -0.00103561181997
C            0.87030307337885       -1.61468481630359       -0.03744753076342
C            1.59906016650509       -2.22614816722271        0.97673799565780
C            1.87106601931985       -3.57868546601758        0.93030763103829
C            1.43000222940981       -4.36094848431358       -0.13016787460649
C            1.72856498601626       -5.83872790372606       -0.18999167893452
C            1.08043727004666       -6.57062031590360        0.98713647673263
C            3.23780048313326       -6.08822016485837       -0.22137490573326
C            0.70248701584725       -3.74626522074185       -1.14044810054381
C            0.42402245813841       -2.39375052839640       -1.09814825884743
C           -0.70735618084538        0.31168747654505        0.05456131697163
C           -1.79379368489007       -0.68786579644237       -0.00053348396626
C           -1.88758486982566       -1.71871574372517        0.92857492586725
C           -2.88293506397426       -2.67126338777941        0.82104300490938
C           -3.80545803976879       -2.63226321033614       -0.21607500557251
C           -4.88778398678002       -3.67864124863538       -0.31963450294836
C           -4.76470511511944       -4.46071481614380       -1.62878612209705
C           -6.27370121516185       -3.04142608101784       -0.19537097067480
C           -3.70241398589448       -1.60571507700278       -1.14845666474246
C           -2.71276008973082       -0.64947497193279       -1.04620701341149
C           -0.96519035521431        1.70508116072282        0.04015794804478
C            0.11148060922390        2.58821570140706       -0.24425707256990
C           -0.21368771408121        3.92545449201411       -0.65614692749581
N            0.72479321402811        4.75497104611012       -1.23393761338429
C           -1.51809982100460        4.34998554553907       -0.62494427099377
C           -2.56663205745205        3.56482752635109       -0.10978763611069
C           -3.90816981341055        4.06486294467403        0.03028573251141
C           -4.28545752234006        5.33790931466624       -0.43352086547927
C           -5.56663720783978        5.80756953443120       -0.30485656662712
C           -6.54133989402654        5.02015698848857        0.30814620408465
C           -6.21051618632725        3.77522697647513        0.77363178639627
C           -4.90577751994432        3.26592092250188        0.64722341083760
C           -4.54171573226160        1.97728004514735        1.15219900554189
N           -5.43771886645465        1.22549312806826        1.89998716971328
C           -3.26768448937668        1.51269260408326        0.96884927440936
C           -2.27725528273139        2.24601810898088        0.28464444010617
C            1.43694240776898        2.09493450633891       -0.16225754590657
C            2.62822028538614        2.97293425172014       -0.14323458337174
C            2.82431977639704        3.84712567580606        0.92543317065228
C            3.97894809473254        4.60062594277595        1.01336927121987
C            4.97056560495820        4.50204541456984        0.04452381021323
C            6.21605764018805        5.32983678444176        0.13752318698454
C            4.77099824118638        3.63294589055296       -1.02108755327358
C            3.62050988842089        2.87375496458293       -1.11460118627235
C            3.55870972349547       -0.61956980245355       -0.91566121824087
C            4.84781453797973       -1.10611175680743       -0.83044396022646
H            7.03016550431584       -2.35321368118546        0.68859502022428
H            7.66311487485033       -0.74106999284893        1.02604617945018
H            7.54172048302099       -1.32064342146958       -0.64237543721857
H            5.78210141836880        0.33733536590480        2.06632971565656
H            3.49150495714121        1.20116658624400        1.92213205219987
H            1.94735088369855       -1.63598250843159        1.81240118332466
H            2.43681968090388       -4.02698321759841        1.73390969137073
H            1.29821157740028       -6.23622540485505       -1.11640982282580
H            1.24808567820092       -7.64251756175299        0.90458772998601
H            1.49868547940027       -6.22931970586086        1.93083196518245
H            0.00819122514920       -6.38679099574256        1.00098947001687
H            3.44280425297586       -7.15120333120046       -0.33076500070832
H            3.69041318870072       -5.55916042738251       -1.05731464777635
H            3.70599359219588       -5.74093059457266        0.69625567547272
H            0.34884452325487       -4.33445386543532       -1.97624688222638
H           -0.13855643591040       -1.93334013245415       -1.89772190191192
H           -1.18840279210091       -1.76226676488496        1.75093373973343
H           -2.94195822210001       -3.46077767020447        1.55780001286176
H           -4.76135070657082       -4.38330226015332        0.51045274260658
H           -4.92463037650429       -3.80981292749883       -2.48468097009528
H           -5.50266983006235       -5.25953635766445       -1.66254511798478
H           -3.77303777045337       -4.90017273806207       -1.71259329246352
H           -7.04616031618232       -3.80654562860758       -0.23538143810197
H           -6.36316225478385       -2.51050198675300        0.75044450909748
H           -6.44773879728098       -2.33502808501177       -1.00337520442913
H           -4.40200172234650       -1.55047178407514       -1.96976698608675
H           -2.64530574855687        0.14143572222298       -1.77951999239901
H            1.69659716531189        4.56314253089484       -1.06025318994734
H            0.47938875879544        5.73066731268453       -1.26961984815742
H           -1.71645530209264        5.34655872862439       -0.98758908356630
H           -3.55755281878251        5.96962856306635       -0.91687715471855
H           -5.82451487040962        6.78832068915673       -0.67778501289684
H           -7.54985101815566        5.39281582162936        0.41399424171021
H           -6.97393925799205        3.18136175636482        1.25483844379783
H           -6.41223405428670        1.33520380051745        1.67121205448509
H           -5.16451092198355        0.26071429085066        2.01192020540864
H           -3.01339818475453        0.56306410996708        1.40904862697278
H            2.06386624317881        3.92521545868907        1.69019376295977
H            4.11804728538200        5.26846218815903        1.85195845632240
H            6.48130499063549        5.51617948606717        1.17582489212253
H            6.06167436980953        6.29434322432844       -0.34834853394275
H            7.04810183725050        4.83374942861173       -0.35667909997488
H            5.53175961490945        3.54232068441021       -1.78317921452353
H            3.48279270143290        2.19960312413296       -1.94666658608038
H            2.93671092121098       -0.88539266342198       -1.75828286494676
H            5.22585386573282       -1.75616169793136       -1.60716359503342
