  68
       -106.93299024
 O         -4.8898325855        0.2637792608        2.3913939160
 P         -4.1122705108        0.0075909629        1.1701268878
 C         -5.1223014228       -0.0194449225       -0.3477461632
 C         -6.4450851745       -0.4179036657       -0.2175925707
 C         -7.2578611839       -0.4968659518       -1.3339380197
 C         -6.7472393728       -0.1768739523       -2.5816813651
 C         -5.4280701093        0.2281007946       -2.7115320660
 C         -4.6122897479        0.3073494311       -1.5972810389
 C         -3.2397207354       -1.5915859752        1.1774276209
 C         -2.6602112565       -2.1274167601        0.0332711896
 C         -1.9731089653       -3.3250002931        0.1090092353
 C         -1.8725000739       -3.9940355914        1.3194313731
 C         -2.4645479801       -3.4687965979        2.4566024209
 C         -3.1462152541       -2.2666446595        2.3856167155
 C         -2.8369590556        1.2620812599        0.8291237320
 C         -3.2948646561        2.6060575871        0.8795711133
 C         -2.4301835620        3.6746265975        0.6186774061
 C         -1.1243538392        3.3789057063        0.3064060931
 N         -0.0747702246        4.1871736545       -0.0064330334
 C          1.0581849168        3.4252477459       -0.2717971271
 C          2.3105044905        3.8178034165       -0.6379387979
 C          3.2907517124        2.7813025973       -0.8546952935
 C          2.9662023482        1.4493322978       -0.7019609141
 P          4.3028859159        0.2437140230       -0.9867473679
 O          5.3081760261        0.6832882812       -1.9639115490
 C          3.4352893873       -1.2892160560       -1.4668781119
 C          2.8262275412       -2.1358491242       -0.5494626457
 C          2.1410092571       -3.2523354699       -0.9943509713
 C          2.0684822685       -3.5302745151       -2.3501233074
 C          2.6889754876       -2.6952013953       -3.2651300926
 C          3.3696330020       -1.5748027242       -2.8231845869
 C          4.9895870274       -0.0977654848        0.6664749660
 C          6.3245657830       -0.4726966428        0.7279058376
 C          6.9076709303       -0.7653434154        1.9473530057
 C          6.1552773750       -0.6826083592        3.1080313533
 C          4.8241726402       -0.3003920661        3.0490486973
 C          4.2380082048       -0.0070372007        1.8309344288
 C          1.6858066179        1.0386219308       -0.3331572704
 C          0.7018857653        2.0493740467       -0.1055554190
 C         -0.6360640535        2.0002091008        0.2554249778
 C         -1.5393174607        0.9398291736        0.5407900311
 H         -6.8209944090       -0.6523348269        0.7681816994
 H         -8.2874512362       -0.8070919197       -1.2324870344
 H         -7.3799819558       -0.2364556370       -3.4548671787
 H         -5.0346325552        0.4849881637       -3.6843676070
 H         -3.5863587628        0.6353236691       -1.6913740218
 H         -2.7517621379       -1.6085895805       -0.9097340893
 H         -1.5148349119       -3.7376880563       -0.7782757088
 H         -1.3362719387       -4.9301270893        1.3741788916
 H         -2.3926247570       -3.9946063572        3.3972590276
 H         -3.6161961025       -1.8346171925        3.2571369937
 H         -4.3300574122        2.7815783925        1.1267039789
 H         -2.7849160623        4.6928558386        0.6596511954
 H         -0.1111556653        5.1928786082       -0.0557437840
 H          2.5846560643        4.8526900326       -0.7641397644
 H          4.2918049599        3.0495756332       -1.1521539284
 H          2.8986931170       -1.9279061251        0.5079687281
 H          1.6636346197       -3.9080929913       -0.2803920090
 H          1.5348593773       -4.4047758695       -2.6931187229
 H          2.6409018969       -2.9171952540       -4.3210222864
 H          3.8656788519       -0.9101463034       -3.5157251615
 H          6.8913380486       -0.5194964449       -0.1908657774
 H          7.9466341851       -1.0565101872        1.9942992280
 H          6.6075516670       -0.9104576071        4.0619198078
 H          4.2420117226       -0.2285013285        3.9564071946
 H          3.2042896404        0.3063318831        1.7814889300
 H          1.4235269743       -0.0024132640       -0.2500555492
 H         -1.1946694315       -0.0809712363        0.5168606938
