  78
       -110.47577594
 C          1.1439141849       -2.5249428972        3.3197778733
 C          1.3568825227       -3.1297364172        2.0921690981
 C          1.8234968832       -2.3831726404        1.0264766485
 C          2.0821747879       -1.0208042054        1.1606749367
 Si         2.5782941444        0.0138422323       -0.3459904440
 C          3.1695419621        1.7274890449        0.2064620492
 C          2.2427706884        2.7080280975        0.5497797992
 C          2.6557849658        3.9526895999        0.9886460628
 C          4.0075565983        4.2398359519        1.0868724145
 C          4.9410638987        3.2769627492        0.7415510824
 C          4.5228142750        2.0318995156        0.3063026857
 C          3.9282113084       -0.8840519168       -1.3283619506
 C          3.9646243434       -0.8537873088       -2.7188838719
 C          4.9669309804       -1.5004051129       -3.4190962674
 C          5.9534359583       -2.1932521583       -2.7369860968
 C          5.9276109622       -2.2391692170       -1.3526687885
 C          4.9222685841       -1.5923211006       -0.6579204825
 C          1.0079838855        0.2757594321       -1.3756294360
 C          0.9184856141        1.3004798525       -2.3516053782
 C         -0.2896308587        1.5434234339       -3.0059769064
 C         -1.3964877817        0.7902545685       -2.7083915640
 C         -1.3466799319       -0.1154961137       -1.6032906506
 Si        -2.6700269442       -0.0467120311       -0.2184471663
 C         -4.3205222070        0.1317415375       -1.1316350255
 C         -4.6331397986        1.2907582395       -1.8311599980
 C         -5.8524476146        1.4268909157       -2.4698495556
 C         -6.7778615178        0.3971929766       -2.4200780266
 C         -6.4778236048       -0.7630829449       -1.7264500426
 C         -5.2570146861       -0.8935224498       -1.0882852893
 C         -2.3986592438        1.3647955140        0.9953018400
 C         -3.2704990804        2.4512561157        1.1144507041
 C         -2.9603263464        3.5302343469        1.9173752969
 C         -1.7653862544        3.5577255805        2.6224173403
 C         -0.8859281451        2.4891354262        2.5146317858
 C         -1.1949561494        1.4119459726        1.7108182779
 C         -2.4490176350       -1.7096454963        0.6583565451
 C         -2.3702726946       -2.8898737131       -0.0781197218
 C         -2.2100884244       -4.1113979473        0.5485999161
 C         -2.1286999179       -4.1766594917        1.9298765582
 C         -2.2111872050       -3.0120010482        2.6760768681
 C         -2.3705243193       -1.7929466518        2.0444664177
 C         -0.0886631372       -0.4857161933       -1.0787633896
 C          1.8717783492       -0.4324205373        2.4034437494
 C          1.4088054802       -1.1746183861        3.4751413296
 H          0.7770192683       -3.1056540967        4.1529970115
 H          1.1535256903       -4.1832003975        1.9665378112
 H          1.9935124912       -2.8606073947        0.0716980202
 H          1.1876813451        2.4915878131        0.4700371840
 H          1.9216833421        4.7003760127        1.2537216969
 H          4.3323917361        5.2119804253        1.4280681456
 H          5.9964922849        3.4977598559        0.8119813509
 H          5.2543252361        1.2837953314        0.0358960227
 H          3.1944941265       -0.3199638937       -3.2558329113
 H          4.9800550569       -1.4652374725       -4.4990710638
 H          6.7374142201       -2.6984226376       -3.2817484500
 H          6.6926646519       -2.7812282472       -0.8153614779
 H          4.9023386736       -1.6347954197        0.4219881019
 H          1.8094820223        1.8301613110       -2.6494449478
 H         -0.3280542818        2.2650797004       -3.8112925982
 H         -2.3061383362        0.8902543671       -3.2789332537
 H         -3.9108555939        2.0931499268       -1.8770106995
 H         -6.0812560329        2.3349217809       -3.0094140438
 H         -7.7287852460        0.4989358657       -2.9220947430
 H         -7.1962057350       -1.5690328011       -1.6837254413
 H         -5.0266912828       -1.7996815760       -0.5479255905
 H         -4.2097125580        2.4352687651        0.5809675226
 H         -3.6529095167        4.3561456145        2.0003422236
 H         -1.5234315090        4.4018616587        3.2510814821
 H          0.0475505089        2.5032264456        3.0600896590
 H         -0.4993422733        0.5900230972        1.6291203550
 H         -2.4254846710       -2.8444207359       -1.1567362305
 H         -2.1481418850       -5.0160728028       -0.0398643177
 H         -2.0033933005       -5.1300994668        2.4222067600
 H         -2.1527180137       -3.0558103856        3.7541384573
 H         -2.4325742924       -0.8898881418        2.6325801338
 H         -0.0333395803       -1.2684375775       -0.3408283432
 H          2.0768732230        0.6208528387        2.5277973535
 H          1.2472071820       -0.6990013202        4.4318890802
