  92
       -146.86935422
 C          3.7672649900        7.6703594998        0.1678777160
 C          4.6232241642        7.0050467151       -0.6949350512
 C          4.6107468788        5.6261864541       -0.7713525468
 C          3.7400389055        4.8870608247        0.0302762945
 N          3.7026275323        3.4924767565       -0.0270610907
 C          4.8329868369        2.7400203268       -0.3448820631
 C          6.0993887200        3.1398207372        0.0846359703
 C          7.2178758453        2.4171049739       -0.2808787060
 C          7.0964620419        1.2816833779       -1.0650844122
 C          5.8386752124        0.8590427756       -1.4627438090
 C          4.7144889576        1.5767903651       -1.1087411970
 C          2.4595444443        2.8452733280        0.0798619302
 C          2.3132025435        1.7296512766        0.9024810905
 C          1.1115592298        1.0563604397        0.9543885793
 C          0.0324280483        1.4574692145        0.1641408192
 C         -1.2164490685        0.6879180272        0.0978684405
 C         -2.4277751066        1.3661837608        0.1601922990
 C         -3.6520682657        0.7101178079        0.0895731602
 N         -4.8155796750        1.3483147798        0.1451495554
 C         -5.9731557837        0.7150403076        0.0722495097
 C         -5.9746410564       -0.7285868864       -0.0733056854
 N         -4.8181942434       -1.3665110511       -0.1239773523
 C         -3.6534342004       -0.7323972883       -0.0508716822
 C         -2.4297258867       -1.3913648460       -0.1078261496
 C         -1.2179929444       -0.7144421236       -0.0434287775
 C          0.0307526205       -1.4836693335       -0.1187623486
 C          0.1859023379       -2.6288839204        0.6620830065
 C          1.3821821882       -3.3136824739        0.6897539204
 C          2.4645008059       -2.8612919607       -0.0622215028
 N          3.7142769992       -3.4949044142        0.0316676449
 C          3.7703519359       -4.8898957110        0.0301550726
 C          2.8864098018       -5.6153103319       -0.7706079394
 C          2.9226056436       -6.9955361707       -0.7748261397
 C          3.8390102586       -7.6760796109        0.0104325635
 C          4.7162364457       -6.9612667386        0.8098978418
 C          4.6835187160       -5.5807849773        0.8277192540
 C          4.8467948864       -2.7185447218        0.2822602850
 C          6.0989831604       -3.1105245217       -0.1926905445
 C          7.2206720809       -2.3618578759        0.1050753344
 C          7.1153780151       -1.2093696025        0.8662859738
 C          5.8698910225       -0.7963395597        1.3102039383
 C          4.7431661113       -1.5396116925        1.0236028369
 C          2.2981980617       -1.7560237126       -0.8958276739
 C          1.0940389645       -1.0869305144       -0.9322594028
 C         -7.2158748251       -1.3721606457       -0.1517956332
 S         -7.4294254148       -3.0910117615       -0.3287430444
 C         -9.1463837199       -2.8912295762       -0.3265471398
 C         -9.5405671039       -1.6029687133       -0.1991600578
 C         -8.4476680014       -0.7037669414       -0.0964258699
 C         -8.4460744673        0.7013569328        0.0467817603
 C         -9.5366510863        1.6055396798        0.1288138659
 C         -9.1390844559        2.8922217291        0.2631632669
 S         -7.4215519175        3.0839792865        0.2983795784
 C         -7.2127324420        1.3641737902        0.1260677490
 C          0.1704235618        2.6112604701       -0.6077709326
 C          1.3626718091        3.3019010190       -0.6475536039
 C          2.8758533263        5.5628774397        0.8936074461
 C          2.8915513553        6.9419597443        0.9566325539
 H          3.7804240997        8.7481159759        0.2225497800
 H          5.3002481599        7.5652425990       -1.3229322145
 H          5.2656982691        5.1141184601       -1.4607424178
 H          6.1974794078        4.0205518973        0.7022742032
 H          8.1923761072        2.7434619087        0.0519300196
 H          7.9731637967        0.7268560526       -1.3611451524
 H          5.7364398642       -0.0331892537       -2.0627376178
 H          3.7369227248        1.2546298326       -1.4355720393
 H          3.1542290788        1.3979846470        1.4936449818
 H          1.0021849405        0.2097406444        1.6155989027
 H         -2.4438741993        2.4368945681        0.2947895168
 H         -2.4459048737       -2.4625651040       -0.2393241502
 H         -0.6302400253       -2.9570540501        1.2885868143
 H          1.4993997371       -4.1844165691        1.3184694009
 H          2.1768240708       -5.0861437400       -1.3896451879
 H          2.2345260570       -7.5436871322       -1.4012148924
 H          3.8673739834       -8.7549324488        0.0020670847
 H          5.4267352350       -7.4833799998        1.4338124582
 H          5.3565865903       -5.0295963018        1.4677619752
 H          6.1838084491       -4.0056252090       -0.7913677086
 H          8.1848670164       -2.6816127314       -0.2622502915
 H          7.9950135704       -0.6342176654        1.1099755023
 H          5.7802786796        0.1082624587        1.8933708978
 H          3.7755545374       -1.2251915289        1.3856314005
 H          3.1269563724       -1.4273531594       -1.5056461416
 H          0.9702296496       -0.2454418144       -1.5973687293
 H         -9.7652512617       -3.7613782956       -0.4226471721
 H        -10.5696996710       -1.2927932017       -0.1789125231
 H        -10.5666886976        1.3003916699        0.0883973854
 H         -9.7558087104        3.7658823616        0.3457159335
 H         -0.6570295789        2.9423568641       -1.2174981499
 H          1.4654572096        4.1811708122       -1.2666958445
 H          2.1977846984        4.9957279655        1.5143957797
 H          2.2201854741        7.4512067315        1.6320847262
