  42
        -63.79286105
 C          4.9871592261        0.8022720034        0.7501007305
 C          3.8043201817        1.1158284975        1.4015381412
 C          2.6378118457        0.4479349980        1.0889825880
 C          2.6306328508       -0.5584172626        0.1140818332
 C          1.4059173049       -1.2948105270       -0.1732313091
 C          1.4684834230       -2.6798778161       -0.2647900254
 C          0.3287703690       -3.4534651636       -0.2734648961
 C         -0.9444648530       -2.8631734421       -0.1185487262
 C         -2.1009694717       -3.6449200186       -0.0244293196
 C         -3.3453805495       -3.0459695737        0.1280579513
 C         -3.4566079781       -1.6795233656        0.2006263168
 C         -2.3174119066       -0.8422623079        0.1159827493
 C         -2.4073176805        0.5791758047        0.2053708895
 C         -3.5911894273        1.2474221716        0.6034351235
 C         -3.6707528108        2.6199797847        0.5957706788
 C         -2.5943937993        3.3871084917        0.1757859003
 C         -1.3909951445        2.7753610701       -0.2120460670
 C         -0.2966856669        3.5366062026       -0.6631354781
 C          0.8623598657        2.9111534979       -1.0974640957
 C          0.9979259777        1.5467846365       -1.0062062541
 C         -0.0345708530        0.7420413845       -0.4511022808
 C          0.1197603226       -0.6509198066       -0.2202068382
 C         -1.0461132347       -1.4444519394       -0.0685071200
 C         -1.2794249024        1.3571358977       -0.1529027051
 C          3.8349226423       -0.8764335543       -0.5207669800
 C          4.9961219457       -0.1967594154       -0.2117556318
 H          5.8973705141        1.3305829657        0.9913003950
 H          3.7937457757        1.8850804657        2.1599259653
 H          1.7244090911        0.6802580783        1.6158045366
 H          2.4354261254       -3.1621783904       -0.2591783904
 H          0.4007848213       -4.5296393794       -0.3256804799
 H         -2.0165003744       -4.7197676793       -0.0850402526
 H         -4.2309359908       -3.6621109664        0.1860034419
 H         -4.4354510259       -1.2394386343        0.2986118804
 H         -4.4418315922        0.6760242166        0.9371415422
 H         -4.5823347499        3.1062620186        0.9121107030
 H         -2.6661235307        4.4643429443        0.1544403281
 H         -0.3916843860        4.6110285167       -0.7130424902
 H          1.6640522457        3.5010372559       -1.5177769967
 H          1.8795861609        1.0733584347       -1.4042738638
 H          3.8459684493       -1.6373819584       -1.2878499022
 H          5.9148960329       -0.4449056338       -0.7232108917
