  42
  -63.7928610500000       0.502251294311528      !
 C          4.9871592261        0.8022720034        0.7501007305
 C          3.8043201817        1.1158284975        1.4015381412
 C          2.6378118457        0.4479349980        1.0889825880
 C          2.6306328508       -0.5584172626        0.1140818332
 C          1.4059173049       -1.2948105270       -0.1732313091
 C          1.4684834230       -2.6798778161       -0.2647900254
 C          0.3287703690       -3.4534651636       -0.2734648961
 C         -0.9444648530       -2.8631734421       -0.1185487262
 C         -2.1009694717       -3.6449200186       -0.0244293196
 C         -3.3453805495       -3.0459695737        0.1280579513
 C         -3.4566079781       -1.6795233656        0.2006263168
 C         -2.3174119066       -0.8422623079        0.1159827493
 C         -2.4073176805        0.5791758047        0.2053708895
 C         -3.5911894273        1.2474221716        0.6034351235
 C         -3.6707528108        2.6199797847        0.5957706788
 C         -2.5943937993        3.3871084917        0.1757859003
 C         -1.3909951445        2.7753610701       -0.2120460670
 C         -0.2966856669        3.5366062026       -0.6631354781
 C          0.8623598657        2.9111534979       -1.0974640957
 C          0.9979259777        1.5467846365       -1.0062062541
 C         -0.0345708530        0.7420413845       -0.4511022808
 C          0.1197603226       -0.6509198066       -0.2202068382
 C         -1.0461132347       -1.4444519394       -0.0685071200
 C         -1.2794249024        1.3571358977       -0.1529027051
 C          3.8349226423       -0.8764335543       -0.5207669800
 C          4.9961219457       -0.1967594154       -0.2117556318
 H          5.8973705141        1.3305829657        0.9913003950
 H          3.7937457757        1.8850804657        2.1599259653
 H          1.7244090911        0.6802580783        1.6158045366
 H          2.4354261254       -3.1621783904       -0.2591783904
 H          0.4007848213       -4.5296393794       -0.3256804799
 H         -2.0165003744       -4.7197676793       -0.0850402526
 H         -4.2309359908       -3.6621109664        0.1860034419
 H         -4.4354510259       -1.2394386343        0.2986118804
 H         -4.4418315922        0.6760242166        0.9371415422
 H         -4.5823347499        3.1062620186        0.9121107030
 H         -2.6661235307        4.4643429443        0.1544403281
 H         -0.3916843860        4.6110285167       -0.7130424902
 H          1.6640522457        3.5010372559       -1.5177769967
 H          1.8795861609        1.0733584347       -1.4042738638
 H          3.8459684493       -1.6373819584       -1.2878499022
 H          5.9148960329       -0.4449056338       -0.7232108917
  42
  -63.7928525400000       0.497748705688472      !
 C          5.0069634117        0.7557058432       -0.5674229627
 C          4.9772604547       -0.1629294925        0.4709704378
 C          3.8051904786       -0.8200672050        0.7869710944
 C          2.6274983402       -0.5601529453        0.0795845536
 C          1.3915852738       -1.2738470694        0.3726676049
 C          1.4441517436       -2.6447050092        0.5946557301
 C          0.3027935095       -3.4157893933        0.6081023033
 C         -0.9570137873       -2.8453440681        0.3215277255
 C         -2.1082717241       -3.6342932164        0.2252063846
 C         -3.3377704768       -3.0536895526       -0.0614019304
 C         -3.4393998107       -1.6993441580       -0.2630241044
 C         -2.3054167736       -0.8554801869       -0.1784283074
 C         -2.3838001916        0.5529987696       -0.3949045743
 C         -3.5361243693        1.1831120434       -0.9247818717
 C         -3.6110599677        2.5516071607       -1.0364112388
 C         -2.5623033176        3.3534028658       -0.6116090506
 C         -1.3886363395        2.7785498506       -0.0968319425
 C         -0.3228969176        3.5762369124        0.3595670391
 C          0.8048623927        2.9910571612        0.9154306080
 C          0.9424052765        1.6242649747        0.9437607200
 C         -0.0570401520        0.7751599429        0.3944863733
 C          0.1061536994       -0.6316411319        0.2909382579
 C         -1.0508045883       -1.4371843774        0.1382775572
 C         -1.2788201688        1.3606368719       -0.0307596903
 C          2.6744631418        0.3641308444       -0.9727520560
 C          3.8516227665        1.0104127281       -1.2896415022
 H          5.9256003705        1.2671451687       -0.8129904101
 H          5.8741660926       -0.3636332746        1.0389539675
 H          3.7859913653       -1.5161479948        1.6130849770
 H          2.4078676481       -3.1242937155        0.6884093168
 H          0.3676825153       -4.4824833831        0.7635282969
 H         -2.0323867292       -4.6991005744        0.3883756353
 H         -4.2202681149       -3.6740967076       -0.1210323145
 H         -4.4081261435       -1.2719422746       -0.4643852991
 H         -4.3648921057        0.5841925728       -1.2653326463
 H         -4.4978870323        3.0077894150       -1.4522042652
 H         -2.6317773544        4.4285700772       -0.6840868179
 H         -0.4177449570        4.6509251842        0.3161980055
 H          1.5802802108        3.6151211169        1.3354989689
 H          1.7958793752        1.1859719756        1.4334998050
 H          1.7840052248        0.5481901959       -1.5548716053
 H          3.8705822144        1.7169079176       -2.1065490164
