73
 energy: -114.646483564158 gnorm: 0.000035844431 xtb: 6.7.1 (edcfbbe)
N            9.23116630456253        1.18119680096550        0.22236061999756
C            9.04355796316201        0.06837808963814        0.01694681063027
C            8.87472134724113       -1.30752089218151       -0.26290054748331
C           10.01700989573455       -2.09498051557315       -0.41230517168636
C            9.89746369772449       -3.43163763235044       -0.73677399227152
C            8.63961131660693       -3.98616363599229       -0.92264795050140
C            7.50533690254634       -3.20858189137311       -0.77831154099594
C            7.59700188464858       -1.86206153714608       -0.43944523446024
C            6.38678597260764       -1.04664525071291       -0.27449485518298
C            6.23679628053128       -0.20065322659849        0.82245746393236
C            5.09707671444812        0.56154891729166        0.97291246417819
C            4.08395519482208        0.50568004615239        0.01832425530083
N            2.93683052726916        1.29088602782905        0.16081217277521
C            2.91451351052234        2.64542543918283        0.43915095143926
C            3.96859394505034        3.53587152427253        0.58280776364882
C            3.66316777722782        4.86068902953803        0.83084114032304
C            2.34428366923555        5.29877875351749        0.92551340006792
C            1.29150952902393        4.42176763240518        0.75688339676171
C            1.57316145445063        3.08545099415229        0.50695768821479
C            0.75104885849886        1.93293575109566        0.26095539278268
C           -0.62032381550923        1.73740085318420        0.21895689944088
C           -1.11856946390263        0.46303719237453       -0.02079941346779
C           -2.56963721940687        0.22920560346296       -0.07111249116158
C           -3.40287425864592        1.14889126778125       -0.72330517841163
C           -4.77040493747373        0.98149981004905       -0.79193336257584
C           -5.32188899904054       -0.13384236606201       -0.17757117985665
C           -4.49764720866573       -1.08618115397763        0.46374352531763
C           -3.12497974996958       -0.89981058311571        0.51668905868153
C           -5.36948564476259       -2.12220569903032        0.94310900559047
C           -5.15716549790995       -3.29582722680960        1.65388261527032
C           -6.24702691323925       -4.07690884174596        1.98218980669327
C           -7.53719781535467       -3.69248831263941        1.62383078859397
C           -7.77377448425996       -2.52943223838249        0.91631351881593
C           -6.68005705862240       -1.75269418874627        0.56188174666730
N           -6.63695501101021       -0.54883903524414       -0.11343340477008
C           -7.73996176971191        0.13947555933965       -0.63667218918991
C           -8.65736158586960       -0.52166998596357       -1.44836341580757
C           -9.74708981776428        0.16067794523082       -1.95642367419969
C           -9.92580403198121        1.50414218393936       -1.67114733850603
C           -9.01052861415540        2.16503608294743       -0.86882233806354
C           -7.92366938406604        1.48861326589007       -0.34707485721413
C           -0.22716197494619       -0.60294089970425       -0.20201414389726
C            1.14149137441743       -0.43035538963522       -0.16792350376522
C            1.63242214364811        0.84900533666025        0.04857811503389
C            4.22629936048489       -0.34098517502914       -1.07898407327608
C            5.36069242286777       -1.11384328163131       -1.21511833122534
H           10.98927603202602       -1.64442622717997       -0.27554193338508
H           10.78181271127092       -4.04030743244765       -0.84842453349847
H            8.54416387675865       -5.03095532281440       -1.17843785911432
H            6.52807068901750       -3.64966155580573       -0.90901037938187
H            7.00679506084827       -0.15950499521627        1.57836541880597
H            4.97812369704106        1.19384026959430        1.83943205385229
H            4.99444272202946        3.21250362536833        0.49158770683622
H            4.46641835617073        5.57257694017230        0.94982466567076
H            2.14757248631183        6.34197153767116        1.12353676916955
H            0.26883493225057        4.76328891311991        0.81254526397462
H           -1.29223309436056        2.56320486276024        0.39794048251440
H           -2.95385548966577        2.00340512419427       -1.20786099894601
H           -5.38753942629264        1.69204686805278       -1.32123820398898
H           -2.49947469882707       -1.61679127698931        1.02677678414165
H           -4.15861364825747       -3.58431991844520        1.94607491338824
H           -6.10382780603077       -4.99476005646942        2.53292074950164
H           -8.37219430330002       -4.31562277951163        1.90875827086593
H           -8.77928276727713       -2.23141674115753        0.65979331306668
H           -8.50241318879493       -1.56324639790228       -1.68734377877340
H          -10.45579260927363       -0.35755087864817       -2.58543076472327
H          -10.77584476561291        2.03454206536244       -2.07301486970102
H           -9.14810192147088        3.21162992002413       -0.64038616845573
H           -7.22039507572744        1.99456574756429        0.29739842565128
H           -0.62642744071412       -1.58841452122714       -0.39141464511923
H            1.80540200876328       -1.27201493713137       -0.29705080275497
H            3.45315134363650       -0.37173372526838       -1.83185896311208
H            5.47153659021784       -1.75225061582996       -2.07965914428927
