73
 energy: -114.553907844444 gnorm: 0.000038501734 xtb: 6.7.1 (edcfbbe)
N            5.73599460371717       -4.26660495140985        0.00264814886864
C            6.62589803391455       -3.53244767671442        0.07708807107737
C            7.76929072730092       -2.74271380136121        0.20156093413029
C            8.98379774879083       -3.43224349263137        0.26576674630651
C           10.16531756382066       -2.78046467114189        0.52610066161484
C           10.14975043677357       -1.38620040482966        0.74983374907820
C            8.98246495447714       -0.68684287213332        0.69194101994087
C            7.73528538508307       -1.30027276778134        0.37838901500751
C            6.56148912033158       -0.53686157208723        0.22178151794941
C            6.41701669782049        0.76806473040472        0.80634120542568
C            5.27638251329344        1.49413807414081        0.67829990860358
C            4.16873369968989        0.99086144561168       -0.04761098935374
N            2.99976021194692        1.71546439489797       -0.16161939606858
C            2.90317324406932        3.07430685281657       -0.42675485274023
C            3.90453196112059        3.99792744111308       -0.68550275276560
C            3.52910528222123        5.30253633488979       -0.95607042036188
C            2.18927021064214        5.68067374087698       -0.98468580938964
C            1.18386914449688        4.75572094704953       -0.76786540550307
C            1.53702962475058        3.44280102456086       -0.49631721960992
C            0.77848976639377        2.24426351801448       -0.26406236738007
C           -0.57601347423048        1.97994708678442       -0.20015090250523
C           -1.00851266046239        0.68200086109546        0.07313766060649
C           -2.43703739306918        0.36930251407573        0.11730908588220
C           -3.35168634486037        1.30085321679576        0.63728132538261
C           -4.70595714530983        1.05327085310160        0.68552342215288
C           -5.16756227241157       -0.15746491776512        0.18331487966825
C           -4.26220606829264       -1.12148672212055       -0.32130629454307
C           -2.90480908788391       -0.85635876517778       -0.35264500065243
C           -5.05330535610915       -2.25792704960565       -0.70822253122323
C           -4.74545129132346       -3.48765026316604       -1.27300779290639
C           -5.77606194581362       -4.36688091518141       -1.54305932050703
C           -7.09857999052531       -4.02628279733400       -1.27036537561514
C           -7.42935176636303       -2.80771772119116       -0.70753623688823
C           -6.39615541699006       -1.93072256709109       -0.41218655523098
N           -6.44804368014103       -0.65746821784855        0.12477174588030
C           -7.61100095921525        0.01605602111217        0.52655056324015
C           -7.86403192893442        1.30547830426814        0.06769077749430
C           -9.01004045135986        1.96709095015366        0.46794354235541
C           -9.91306595147523        1.34902377833894        1.31701823900426
C           -9.66384248592664        0.06452010875510        1.77132557349351
C           -8.51607916266199       -0.60204200343483        1.38425748093819
C           -0.05489324830553       -0.32406312821319        0.31447416988245
C            1.29986787839796       -0.08028728151509        0.26154522278320
C            1.72343966130660        1.20455950356088       -0.06202777904351
C            4.29448033394677       -0.28229768927286       -0.65699787349429
C            5.43734383670267       -1.00507571804545       -0.53760846798274
H            8.97191321044366       -4.50400757216770        0.12086161642387
H           11.09533378775136       -3.32522574001507        0.57258434784506
H           11.07830329312018       -0.87524173085035        0.95847650790873
H            9.01023269543045        0.38355441551874        0.82712473539195
H            7.20776585483807        1.15252622134277        1.43072810398772
H            5.17193300628510        2.43641467884128        1.19631488955358
H            4.94455931399603        3.71211258290762       -0.69687639960500
H            4.29172158574838        6.03971006399653       -1.15672252646557
H            1.93487837726681        6.70843677294268       -1.19596457618023
H            0.14493919139540        5.04434092638732       -0.81705417404541
H           -1.29026895325530        2.76783934928887       -0.38444291356770
H           -2.97650229165734        2.22833777388140        1.04301167000115
H           -5.38449981339991        1.77449235334775        1.11566973330455
H           -2.22094461298483       -1.58330968429034       -0.76276865286888
H           -3.72198299972201       -3.74527784926796       -1.49904826762060
H           -5.55860078134192       -5.32966378294227       -1.98042557329558
H           -7.88436404861540       -4.72823939104344       -1.50681569796074
H           -8.45898153610481       -2.54620253651337       -0.51581287588374
H           -7.16838751049055        1.77442791224899       -0.61216252791333
H           -9.20271637211613        2.96685524772423        0.10814878199785
H          -10.80885173362856        1.86714883604024        1.62391585461998
H          -10.36300747718770       -0.41885819201788        2.43729866024152
H           -8.30671447411604       -1.59470757544738        1.75388014641381
H           -0.39700380466399       -1.31120351904964        0.58441929827401
H            2.00727819731757       -0.86288635464794        0.48750444173309
H            3.49069064224276       -0.63774944012471       -1.28457257276481
H            5.52758407644200       -1.93188420434143       -1.07941179899129
