  73
       -114.64641478
 N          9.2158482500        1.1917863901        0.2216778645
 C          9.0362768676        0.0776621010        0.0155769998
 C          8.8762988510       -1.3004286362       -0.2588747229
 C         10.0225324459       -2.0838929232       -0.3981058076
 C          9.9099194266       -3.4224114637       -0.7176776252
 C          8.6553777967       -3.9824510667       -0.9096108653
 C          7.5171153761       -3.2087438411       -0.7753517402
 C          7.6018063523       -1.8609058386       -0.4403642397
 C          6.3881493740       -1.0492630234       -0.2811968318
 C          6.2309521163       -0.2075387248        0.8180397692
 C          5.0895180034        0.5526018255        0.9645699941
 C          4.0820740688        0.4990920534        0.0037703370
 N          2.9351773223        1.2853703440        0.1433216058
 C          2.9161633474        2.6381698691        0.4300696756
 C          3.9726844402        3.5257290371        0.5740707437
 C          3.6708970502        4.8494720536        0.8318920433
 C          2.3531963712        5.2891444234        0.9359086944
 C          1.2979697913        4.4151986802        0.7664756474
 C          1.5759415863        3.0800091424        0.5063482714
 C          0.7510117876        1.9302591697        0.2568824826
 C         -0.6208623357        1.7371308072        0.2198681699
 C         -1.1220709964        0.4649812224       -0.0250539918
 C         -2.5737565300        0.2332549930       -0.0700620999
 C         -3.4082025424        1.1551933768       -0.7174530781
 C         -4.7759689840        0.9883096894       -0.7830839650
 C         -5.3259275919       -0.1289079730       -0.1708324581
 C         -4.5007504562       -1.0824775732        0.4674773007
 C         -3.1278933172       -0.8964296536        0.5175293672
 C         -5.3718718231       -2.1198764970        0.9452304180
 C         -5.1589811195       -3.2952052884        1.6530308498
 C         -6.2483248708       -4.0784754267        1.9779801229
 C         -7.5386193644       -3.6949050638        1.6190091089
 C         -7.7758814005       -2.5300099338        0.9147826498
 C         -6.6826862361       -1.7506770105        0.5644641437
 N         -6.6405521940       -0.5450624966       -0.1074274967
 C         -7.7440974931        0.1427416328       -0.6306910564
 C         -8.6547329621       -0.5163792943       -1.4515465969
 C         -9.7445214631        0.1652909238       -1.9604301634
 C         -9.9301226387        1.5058693788       -1.6660438282
 C         -9.0217275087        2.1646303019       -0.8541173666
 C         -7.9344470051        1.4889388562       -0.3321880214
 C         -0.2332926265       -0.6011771355       -0.2176108290
 C          1.1358135934       -0.4309270444       -0.1890629309
 C          1.6297104905        0.8461144997        0.0341327937
 C          4.2309472384       -0.3442876670       -1.0950583971
 C          5.3672571315       -1.1153761201       -1.2273712030
 H         10.9922760124       -1.6289692882       -0.2576471671
 H         10.7972513060       -4.0282190867       -0.8210511953
 H          8.5656275610       -5.0284168766       -1.1626451765
 H          6.5422712879       -3.6537234792       -0.9110905926
 H          6.9967405929       -0.1682157536        1.5783402076
 H          4.9647264175        1.1821104414        1.8323030277
 H          4.9974259646        3.2007053491        0.4761889305
 H          4.4759959774        5.5591340506        0.9517550513
 H          2.1593543417        6.3313081507        1.1420531357
 H          0.2762242260        4.7582470717        0.8294047772
 H         -1.2908023331        2.5628111994        0.4066980424
 H         -2.9599523275        2.0110100495       -1.2004586942
 H         -5.3946495027        1.7001549034       -1.3088698455
 H         -2.5011496365       -1.6137967648        1.0255718008
 H         -4.1603862882       -3.5834843916        1.9453168583
 H         -6.1045919243       -4.9977177677        2.5262617426
 H         -8.3730444142       -4.3203125985        1.9006795469
 H         -8.7813117137       -2.2325753348        0.6571401001
 H         -8.4940079942       -1.5555588074       -1.6971492312
 H        -10.4475183426       -0.3509402490       -2.5974690233
 H        -10.7802621378        2.0357850890       -2.0683944124
 H         -9.1654045778        3.2086963072       -0.6180104679
 H         -7.2358029799        1.9930247425        0.3188185507
 H         -0.6352879066       -1.5847374327       -0.4112542758
 H          1.7979071688       -1.2725460424       -0.3274815216
 H          3.4618201406       -0.3738000727       -1.8521106840
 H          5.4837651805       -1.7512638405       -2.0930479203
