111
 energy: -157.712798809275 gnorm: 0.000138939381 xtb: 6.7.1 (edcfbbe)
C            3.02054155849323        2.81069875158224       -2.78944316669188
C            1.56612748064785        3.22332591890440       -2.54675146233062
C            1.55952644176396        4.30000264641984       -1.45376386050612
C            1.00363707799364        3.80710225327311       -3.85140485562945
C            0.68570682981193        2.05677594637681       -2.12415763493289
C            1.15026516856113        0.73890861753163       -2.11069124987738
C            0.33787457746845       -0.33069865925205       -1.78395997794263
C           -0.97998400421589       -0.07451114442098       -1.44528712630578
C           -1.46716388498497        1.25049612447040       -1.41502814809797
C           -0.63734637422290        2.30004361551158       -1.76990503346695
C           -2.83658974363777        1.16641021029424       -0.97989021371310
C           -3.82803045570608        2.11392081112752       -0.77195374615556
C           -5.08711819687757        1.71551594859037       -0.34334741126112
C           -6.21824910978914        2.70307374839472       -0.10023604784507
C           -5.77442569716623        4.15909427171239       -0.26829135355370
C           -6.75406237115063        2.53446846332341        1.32889681200573
C           -7.34065999742811        2.42183405828584       -1.10974870918568
C           -5.32870728561862        0.34777434141682       -0.15416288412524
C           -4.36573144400723       -0.61840398064431       -0.36240126082918
C           -3.10534069133426       -0.20386730874330       -0.76607417078420
N           -1.98341497773104       -0.94529474264674       -1.06776671404835
C           -1.81260309190563       -2.32345194487937       -0.93641706553100
C           -1.21637078099579       -3.07578193972965       -1.97836562154313
C           -0.87854463692877       -4.38111183471509       -1.74865686289693
C           -1.16984597087738       -4.93814054323445       -0.49286768193632
S           -0.06101834455263       -6.20947571606141        0.09186256046923
O            0.51032374525986       -6.89640790341857       -1.03795058441704
O           -0.58182572989275       -6.98779235497678        1.17247838602253
C            1.10607771140520       -4.95864267807536        0.64572064219226
C            1.92483771477186       -4.36941531032411       -0.34181943992351
C            2.21941161516257       -3.04176147461355       -0.23504715552230
C            1.72258771897297       -2.29692012290203        0.87465754268383
N            1.90832806110299       -0.92456898595573        0.98614967094271
C            0.93203828209779       -0.02148135373416        1.36519395040371
C           -0.40047722789333       -0.22813772843090        1.67914550315800
C           -1.17559613196050        0.86715615762295        2.01175570700828
C           -0.66006434544437        2.16515903099015        2.05486332725452
C           -1.49873211124485        3.36055825051109        2.47922609758334
C           -2.96143216451001        2.99325173520175        2.74144073705498
C           -0.90637908931656        3.93940952581402        3.77279276837528
C           -1.46888241848243        4.42496279481058        1.37435112000438
C            0.67645467958459        2.36124695822679        1.72055803305135
C            1.46876982368443        1.28449037100213        1.36444807080658
C            2.84454699717229        1.15610242293041        0.96109647183834
C            3.86728858146384        2.07369114016341        0.78035782921668
C            5.12636239853512        1.63838839036332        0.38667430313088
C            6.28758832699741        2.59391420474092        0.16233064644722
C            6.84157240697884        2.40223907054296       -1.25700382335749
C            5.87843342865219        4.06169424219882        0.31437312778675
C            7.38442780176496        2.28946449147057        1.19282899089952
C            5.33413081369953        0.26340061035200        0.21523383005380
C            4.33645157477033       -0.67346053683522        0.39580598180633
C            3.07243937052770       -0.22192232605020        0.74711833796593
C            1.04692658239517       -3.00883928370328        1.86994688191319
N            0.75376113153772       -4.27408146332280        1.73410243290798
N           -1.81439810227279       -4.24795182374179        0.45037874603624
C           -2.13763081978194       -2.99424428820302        0.24251781929404
H            3.60567269259386        3.69052925647743       -3.05180740351703
H            3.09838897721702        2.10456519986255       -3.61279288715687
H            3.45178783783541        2.36717515343090       -1.89435291803560
H            0.56643890657869        4.71325312829753       -1.30448199555284
H            1.89916622388238        3.87073901158810       -0.51536893324630
H            2.22577440704585        5.11557803447533       -1.72835589873819
H           -0.01557868649262        4.15931877325745       -3.71691046081519
H            1.00131101277942        3.04991798394841       -4.63265547789482
H            1.61484394013477        4.64379179642083       -4.18313964991786
H            2.17599706258601        0.52767228358929       -2.36329766145334
H            0.72597244781793       -1.33793648014678       -1.78605784308471
H           -1.03239589534053        3.30379252641468       -1.77350000451787
H           -3.60328428759420        3.15072687726163       -0.95900293029653
H           -4.96855834021953        4.40394871718028        0.41971514134446
H           -6.61244251225047        4.81904676803455       -0.05398499454558
H           -5.44842350582668        4.35601577302738       -1.28693853116052
H           -5.96111555724663        2.70571174748844        2.05346517232020
H           -7.15540730592765        1.53849432532508        1.49135858766558
H           -7.55021605249645        3.25240479399587        1.51356926599393
H           -6.96732231658671        2.52596519740043       -2.12647245702581
H           -7.73325859195366        1.41546638663567       -0.99330076857883
H           -8.15755993489766        3.12600891558297       -0.96762478215005
H           -6.30857072697908        0.02249694863597        0.15863035148266
H           -4.59490212572142       -1.66434925081593       -0.22659206966682
H           -1.04480267957817       -2.60663523314876       -2.93546988528355
H           -0.39951289870059       -5.00313958371738       -2.48651137886484
H            2.23775241375364       -4.97732068976286       -1.17429637156690
H            2.79414523603739       -2.53514630720083       -0.99527254779061
H           -0.82837404975892       -1.21774843425740        1.66133897373579
H           -2.21190867634448        0.69123860124462        2.24666255157667
H           -3.41770812571493        2.56371796231903        1.85220095993293
H           -3.51552334554811        3.89044274001661        3.01222684578479
H           -3.04865827646721        2.28835408356045        3.56494843413910
H           -1.49405025584633        4.79253176215333        4.10500901899817
H           -0.91384977006890        3.18781173268607        4.55930487228046
H            0.11907730673160        4.26739869420013        3.62581896112018
H           -0.46315572487601        4.79900715592894        1.20645598473397
H           -2.10109192215426        5.26712589222122        1.64882719385181
H           -1.83750857345066        3.99875269094557        0.44535717721941
H            1.11003108686925        3.34877519348050        1.74251507608767
H            3.66716096515875        3.11702780848888        0.95799652505486
H            7.21737905051519        1.39442811118222       -1.40750726588758
H            7.65996477870349        3.09687587820060       -1.43290281367388
H            6.06461809933790        2.59110988437183       -1.99456370865331
H            5.09227669368132        4.32281937273303       -0.39035332613594
H            5.53849595939149        4.27281929205632        1.32557049690126
H            6.73698215133726        4.69865367554455        0.11241664808671
H            8.22006269518737        2.97362234296265        1.06292736343049
H            6.99552270043611        2.40650447487218        2.20224520063758
H            7.75554900620256        1.27382987172879        1.08712444940017
H            6.31489306429654       -0.09289313991707       -0.05859545923121
H            4.54899965640266       -1.72565754990147        0.28623865955171
H            0.76227659917347       -2.53405860736666        2.79868925130204
H           -2.64960700665370       -2.48985654563817        1.05146325460785
