111
 energy: -157.712799766068 gnorm: 0.000119097138 xtb: 6.7.1 (edcfbbe)
C            3.08983762659877        2.73171745672376       -2.80128322447883
C            1.65168725418322        3.19055466583569       -2.54516490395847
C            1.68852116838515        4.26031433580611       -1.44596773606792
C            1.09920215518509        3.80044305464339       -3.84210186855285
C            0.73665957024823        2.05114074058604       -2.12208102819070
C            1.15821702708258        0.71882272532560       -2.11711461062990
C            0.31386254939099       -0.32523890967868       -1.78873325080376
C           -0.99261626883293       -0.02793597652881       -1.43962584559130
C           -1.43612255772378        1.31209834886496       -1.40070266819132
C           -0.57528449938629        2.33566860082309       -1.75750103815547
C           -2.80432339213092        1.27095270320894       -0.95577068803121
C           -3.76237632585453        2.24967623480666       -0.73633753498490
C           -5.03059244634485        1.89106619907935       -0.29960683843606
C           -6.12623133915523        2.91445653559506       -0.04263202430022
C           -5.63510643713269        4.35573585284130       -0.20618905942571
C           -6.65646696154702        2.75581314085582        1.38972241652746
C           -7.26504251148269        2.67665069375251       -1.04488816488882
C           -5.31574838088425        0.53114880376153       -0.11473834542848
C           -4.38667444012642       -0.46527879271174       -0.33430563831793
C           -3.11620662580648       -0.09068689632880       -0.74540755758805
N           -2.02122375840236       -0.86707724766285       -1.05817874788277
C           -1.89517791709142       -2.25076738665350       -0.93471729715454
C           -1.33091245069349       -3.01681371514918       -1.98437082545456
C           -1.03592110258981       -4.33407735221518       -1.76391395322143
C           -1.33812257436393       -4.88805991787905       -0.50936329582967
S           -0.27064043340341       -6.20133713440829        0.05970535830973
O            0.26706260996300       -6.90138727112055       -1.07857976564782
O           -0.81052073707137       -6.96740864637552        1.13974941480403
C            0.94488188792692       -4.99653136201753        0.61117053301088
C            1.77493957906984       -4.43063360824151       -0.38072185872293
C            2.11632232383899       -3.11464475820044       -0.27004665976402
C            1.65539000245898       -2.35911550884796        0.84797549815439
N            1.88807069304509       -0.99440307017727        0.96408510484423
C            0.94541405419516       -0.06148403629934        1.35565534872806
C           -0.39033795139149       -0.22591656490599        1.68059648084996
C           -1.12632937948618        0.89271216082049        2.02420388346738
C           -0.56831040390827        2.17298885776009        2.06771896213003
C           -1.36389220206389        3.39319771673057        2.50418128508135
C           -2.83600542779461        3.07308564079192        2.77551262204477
C           -0.74308953409916        3.94531674562275        3.79609160229060
C           -1.30715912451561        4.46183251861794        1.40447753166525
C            0.77101374465821        2.32674357010475        1.72245395407352
C            1.52457402293943        1.22624804956815        1.35504797837547
C            2.89156848696397        1.05461412098743        0.93793659078193
C            3.94182598681976        1.93901568687895        0.74985990195909
C            5.18186250236646        1.46447276819845        0.34117122226669
C            6.37105718176134        2.38259614225856        0.10732713127113
C            6.90493357810911        2.17645527492220       -1.31770256838099
C            6.01094662971057        3.86246061162818        0.26620697493511
C            7.46746417616905        2.04053198502313        1.12641749379738
C            5.34295266026400        0.08410285911909        0.16294412003872
C            4.31716732040587       -0.82043361214059        0.35068959282883
C            3.07216114751365       -0.32928014778922        0.71648361277460
C            0.96507402129337       -3.05279871220259        1.84608122636696
N            0.62707415151672       -4.30642735574560        1.70683262979956
N           -1.95299069218205       -4.18195092961465        0.44179897940852
C           -2.23515639729723       -2.91689765543980        0.24265936685029
H            3.70177267881399        3.59335310322391       -3.06290683916243
H            3.13816728754554        2.02838767194105       -3.62929224762257
H            3.51273308249976        2.26874375200398       -1.91209399768489
H            0.71067498359336        4.70512057952439       -1.28703974414072
H            2.02047859447370        3.81448624664748       -0.51255938672985
H            2.37932628233421        5.05514637361043       -1.72070387472965
H            0.09334532451902        4.18564321438070       -3.69786053666725
H            1.06586187309709        3.04847723435070       -4.62766469699624
H            1.73549616188691        4.61830407189016       -4.17363595602780
H            2.17474026500326        0.47542389779617       -2.37789287889960
H            0.66921957361455       -1.34446584083808       -1.79744809679137
H           -0.93766146014183        3.35167801141373       -1.75444148175331
H           -3.50494287740921        3.27932511523453       -0.92076112595033
H           -4.81605702546130        4.56932852990810        0.47665119090647
H           -6.44875206099453        5.04217555331364        0.01856521412894
H           -5.31071592355448        4.54760330939174       -1.22631242269834
H           -5.85250209954262        2.89557694956440        2.10889256749992
H           -7.09039094016024        1.77319840537802        1.54975266355187
H           -7.42614036844997        3.49942290656574        1.58476275138174
H           -6.89619518390072        2.77409980646906       -2.06391107886077
H           -7.69015471739794        1.68329214863857       -0.93088435713322
H           -8.05683208739855        3.40689030930900       -0.89253510492159
H           -6.30350292363739        0.23687102095849        0.20388824523684
H           -4.64932419528169       -1.50368551365948       -0.20130894288082
H           -1.14957310536893       -2.54827780667670       -2.93997612543297
H           -0.58293180243396       -4.96774144983604       -2.50828015272408
H            2.05893594017197       -5.04465360583704       -1.21905780205799
H            2.70133871226934       -2.62394832677528       -1.03285488614783
H           -0.85056443818917       -1.20092615574811        1.66263310212513
H           -2.16575936837480        0.74976101209880        2.26754377232590
H           -3.31266606504503        2.66317492229022        1.88769143847142
H           -3.35815694038850        3.98677794418692        3.05445731578811
H           -2.94061865114393        2.36753820271561        3.59642807653093
H           -1.29902019818556        4.81630221934266        4.13647695037940
H           -0.77054356682156        3.19059788084239        4.57916541132464
H            0.29187971673834        4.23891279292404        3.64314514590240
H           -0.29096606443063        4.80350145018980        1.23078052196403
H           -1.90920071080994        5.32288453265428        1.68802459846866
H           -1.69659563814101        4.05284146606736        0.47624440177590
H            1.23676301661235        3.29950368053909        1.74452321202955
H            3.77777649138590        2.98763780788758        0.93327666786327
H            7.24881282604862        1.15805478463710       -1.47317435355444
H            7.74210852879335        2.84640325745055       -1.50084463584803
H            6.12682862603312        2.38977008769194       -2.04732925353677
H            5.22649668007597        4.15022069369557       -0.42998276748219
H            5.68826293279740        4.08230323168615        1.28118821286166
H            6.88747321218938        4.47189870286447        0.05667065058303
H            8.32375920770999        2.69717216846479        0.98922632185357
H            7.09260990493645        2.16839613893632        2.13982505322903
H            7.80396579876110        1.01345232738490        1.01547162158770
H            6.30868448049211       -0.30287968706057       -0.12240609346190
H            4.49413399644177       -1.87857936771664        0.23525385968695
H            0.70599232475813       -2.57361755682489        2.78005794083252
H           -2.72480751314336       -2.40027694330111        1.05768027832105
