  62
        -95.14684657
 C          3.6505917474       -2.0592487670       -1.9438847644
 C          2.5471171775       -2.1920369563       -2.7858666868
 C          1.4220985089       -1.4287698397       -2.5478991229
 C          1.3605987944       -0.5494166945       -1.4716254523
 N          0.2178911996        0.2492758276       -1.3368286778
 C         -1.0825457238       -0.1999111761       -1.4535443449
 C         -1.5581749194       -1.4996213606       -1.5446669498
 C         -2.9382792204       -1.6788127826       -1.6345317021
 C         -3.8058890816       -0.5970131593       -1.6081302233
 C         -3.3383591128        0.7061707654       -1.4911014552
 C         -1.9648816036        0.9088568739       -1.3998505302
 C         -1.1500734328        2.0728866871       -1.2454552204
 C         -1.4261736859        3.4356563350       -1.1692643775
 C         -0.3692925888        4.3204352316       -1.0804201429
 C          0.9531652111        3.8751572788       -1.0986607575
 C          1.2550870799        2.5247114643       -1.1883192930
 C          0.2022530685        1.6255451840       -1.2320256808
 C          2.4643006652       -0.4247163455       -0.5882038789
 C          2.4621401810        0.4203480798        0.5978991152
 C          3.6014514956        1.1829691064        0.8949522465
 C          3.6471720185        2.0486266675        1.9622443113
 C          2.5397536586        2.1839923297        2.7987140879
 C          1.4135029031        1.4248129757        2.5538759259
 C          1.3544732405        0.5469257457        1.4761224684
 N          0.2104322866       -0.2489342889        1.3362547999
 C          0.1919349536       -1.6249155548        1.2280910900
 C          1.2424974699       -2.5266060385        1.1821456366
 C          0.9374073281       -3.8758591096        1.0849089000
 C         -0.3860631562       -4.3179813029        1.0627238607
 C         -1.4408025056       -3.4312519533        1.1559811570
 C         -1.1614301990       -2.0694093866        1.2386881234
 C         -1.9737939680       -0.9042782764        1.3966589745
 C         -3.3469101506       -0.6996470513        1.4892762548
 C         -3.8122739073        0.6039329001        1.6091724032
 C         -2.9428115047        1.6843956264        1.6348838345
 C         -1.5630479850        1.5031402172        1.5439480384
 C         -1.0894146722        0.2028091864        1.4519944858
 C          3.6025952503       -1.1914931421       -0.8783958672
 H          4.5418305449       -2.6405186175       -2.1267579635
 H          2.5770735876       -2.8671814109       -3.6264414118
 H          0.5841678613       -1.4733208959       -3.2283926589
 H         -0.8898868257       -2.3461237487       -1.5622147194
 H         -3.3314058592       -2.6802823707       -1.7148374647
 H         -4.8693417192       -0.7719191638       -1.6812556763
 H         -4.0196749950        1.5415644864       -1.4698883408
 H         -2.4469591517        3.7852285971       -1.1785322243
 H         -0.5646307537        5.3808051646       -1.0138266921
 H          1.7569883676        4.5936559957       -1.0558381385
 H          2.2798784793        2.1966995940       -1.2428571322
 H          4.4534911483        1.1100884249        0.2338842269
 H          4.5397075554        2.6258916574        2.1511614811
 H          2.5676715824        2.8577516808        3.6404690186
 H          0.5721576645        1.4713560897        3.2300484200
 H          2.2680465171       -2.2018203032        1.2405207224
 H          1.7396597698       -4.5959677257        1.0396339074
 H         -0.5837550558       -5.3775520785        0.9907371148
 H         -2.4624603465       -3.7782900919        1.1631659538
 H         -4.0294148764       -1.5340520355        1.4668729311
 H         -4.8753866038        0.7806061002        1.6828217148
 H         -3.3344910131        2.6863624361        1.7159486242
 H         -0.8937401637        2.3488621090        1.5611714974
 H          4.4511410511       -1.1211629344       -0.2127954996
