166
 energy: -249.371796257755 gnorm: 0.000198146583 xtb: 6.7.1 (edcfbbe)
N           10.02420288566650        6.15570172266017       -1.81381107181759
C            9.42087025519504        5.37459948065037       -1.23193096459549
C            8.66452590540475        4.40313346147482       -0.53719363791708
C            7.51137981129587        3.88139765145478       -1.11196858393673
C            6.74622417097238        2.93004654598562       -0.44825345947351
N            5.58099487471781        2.45033132336487       -1.04295415182280
C            5.51420907897732        1.78580932854895       -2.26201629703480
C            6.47374393301161        1.66012100324355       -3.25305245425824
C            6.15250229721645        0.91199419310758       -4.37154050522267
C            4.90950286585793        0.30107327836238       -4.50354343299062
C            3.95729662900481        0.40806767365186       -3.50835246373164
C            4.26107132924482        1.14458491918875       -2.37271137884083
C            3.53781194152017        1.43272777376670       -1.16330305724671
C            2.29771428869702        1.05085283950164       -0.68097605558122
C            1.86822343269977        1.53619079428190        0.54981031158809
C            0.56919340179083        1.13229102199142        1.10338082705867
C            0.38147037621262        0.99997813975076        2.47596758625113
C           -0.85353192157998        0.66523024524162        3.00241529833860
C           -1.94885777861861        0.43864945526440        2.18085908977255
C           -3.35190122109872        0.08551692536992        2.66112558450541
C           -4.29947322842670        0.97563425695130        1.86879523663826
C           -5.33171885616978        0.49810751225092        1.07448754743481
C           -6.14152133890530        1.36574151347281        0.36420874667752
C           -5.94840291809746        2.73811858052113        0.44777820999039
N           -6.77012894881569        3.61406230947395       -0.27567821492982
C           -6.33723818326421        4.63767400230935       -1.09343172088227
C           -5.04440714651204        5.01494317294474       -1.42851029233436
C           -4.88771277680447        6.07504813747297       -2.30039612158686
C           -5.98519531145817        6.74454108262356       -2.83775430622987
C           -7.27357048304325        6.35802415819306       -2.52787867722679
C           -7.45725432198961        5.29438344897773       -1.65407834929519
C           -8.62002093090108        4.62613381134523       -1.14140833770358
C           -9.98500100727568        4.81648069140584       -1.31232211257215
C          -10.85831591693292        3.98510538145107       -0.64041879942990
C          -10.38592028358679        2.98344034772731        0.20515661768571
C           -9.03315643177098        2.77501182187069        0.39213972580665
C           -8.14953963869017        3.59253721992176       -0.29855111589143
C           -4.92793479682446        3.22993821870077        1.25722185321337
C           -4.11464899367230        2.35519661009914        1.94653782310988
C           -3.57354941723063       -1.40885052890029        2.37952856213476
C           -2.60141764889345       -2.28136034098305        3.17505259653918
C           -2.52334204208389       -1.87050612439687        4.65369820610960
C           -3.65389793121983       -0.91624313573698        5.01744057952883
C           -3.62086111424434        0.35392333535692        4.16431188389953
C           -1.74840195608779        0.53419066695438        0.80416293581612
C           -0.52332261585417        0.87965342249571        0.27523236448883
C            2.67277269388580        2.44655367801062        1.24861092325133
C            3.91879109734447        2.82514464961570        0.79331704239919
C            4.37330877478042        2.26211468771775       -0.38793993126869
C            7.16785832038324        2.46409176873127        0.82249280521693
N            6.45550569787938        1.47715228805917        1.50128401954377
C            5.84654864147993        1.63630793554113        2.74088584950068
C            6.00506806344581        2.64211291083472        3.68004468915831
C            5.23521275750517        2.58032729115970        4.82779767598456
C            4.32236214155405        1.55084467599155        5.03543592488639
C            4.14864540586621        0.55564534658286        4.09319585191523
C            4.91253034868109        0.59560865571215        2.93602716687790
C            4.96142713151095       -0.23224266691043        1.76147008294665
C            4.25054730278211       -1.34660962050983        1.35017462005162
C            4.52368757602686       -1.89672739341980        0.10403690136623
C            3.69119452807106       -2.99494303426312       -0.40506458152639
C            3.34979923837535       -4.08224112765586        0.38938899658821
C            2.50709151269689       -5.07063095364907       -0.08403760689565
C            1.95703792021723       -5.00531497748128       -1.36097750738166
C            0.91554138952423       -5.99786105680550       -1.86135060878848
C           -0.43343186262341       -5.31387850690389       -1.65810018126461
C           -0.71031225211538       -4.74183279338038       -0.41827190860208
C           -1.92166662073318       -4.13915916390836       -0.15432083263230
C           -2.91187226014908       -4.10354655873256       -1.13061133680079
N           -4.15981168531632       -3.52889780810883       -0.84751540681497
C           -4.94560082512811       -3.82842903065788        0.24752916576715
C           -4.71904725808914       -4.72475256770178        1.28255133044564
C           -5.68166117002380       -4.82997983302443        2.26791405416230
C           -6.85154057573097       -4.07410738908075        2.22736955527256
C           -7.09943730840866       -3.20704714201710        1.18237943975718
C           -6.14626619976779       -3.08437536844902        0.17943678049993
C           -6.07358501373448       -2.30221870037257       -1.02278196097261
C           -6.93193335271294       -1.38868094078315       -1.62092661057609
C           -6.52728177193175       -0.76470974191685       -2.78362388886950
C           -5.28139795764554       -1.03691288515406       -3.34491842393798
C           -4.41770810539175       -1.95411000076441       -2.77787409034423
C           -4.82775384420637       -2.60115983608327       -1.62090496898653
C           -2.64653822609168       -4.65935722968868       -2.37576108065797
C           -1.42073984915250       -5.24876626096255       -2.63309644934901
C            1.17298582376449       -6.38779708363512       -3.32671399389924
C            2.51098906330050       -7.10697131105240       -3.47081835313586
C            2.48780209356382       -8.40668356468826       -2.67469935531568
C            2.18881104603363       -8.11054088845088       -1.20961302376958
C            0.88960120354056       -7.32001640335806       -1.06581604268370
C            2.30322928725762       -3.91071233249932       -2.14926213391460
C            3.16655073396747       -2.93565523954329       -1.69201544996765
C            5.56399061250141       -1.38003802147453       -0.67581993788775
C            6.29640820873701       -0.28133867685910       -0.27440015046826
C            5.93668175716488        0.33264813745382        0.91458908506127
C            8.31076208576615        3.00270594755781        1.40053374207028
C            9.06237428336992        3.96756384947289        0.73979280389172
C           10.22546827501524        4.49339979508392        1.34723698516623
N           11.16203876390939        4.91201960378823        1.85743362550058
H            7.18326974102243        4.24812367638512       -2.07331248226168
H            7.44720778095468        2.11885148121488       -3.16248282167206
H            6.88318213833035        0.80290931090498       -5.15882582464711
H            4.69295690915601       -0.26740630664241       -5.39552585700515
H            2.99237729287551       -0.06585590303572       -3.60853506653159
H            1.68582370837411        0.36521850024104       -1.24624040605776
H            1.21645337622432        1.15147997993432        3.14532098632294
H           -0.94145365394017        0.58837660190422        4.07503380877703
H           -5.51390044374734       -0.55951498780461        0.98044646914547
H           -6.91420712144055        0.97391880320376       -0.27862092468352
H           -4.18808281995987        4.49083105999658       -1.03127469735679
H           -3.89131095098263        6.38976676773525       -2.57441588480814
H           -5.82019549824913        7.57094178833638       -3.51315922603376
H           -8.12417012182377        6.86617757674269       -2.95677762395822
H          -10.35077033544540        5.60275978869930       -1.95550878060183
H          -11.92363242380220        4.11450791414640       -0.76142954197948
H          -11.09407141754549        2.35830694000569        0.72931331170254
H           -8.67635624589742        2.00851826823591        1.06356952175091
H           -4.78225950121733        4.29617427519832        1.34599461163271
H           -3.31629571593020        2.74783272406555        2.55942421416903
H           -4.59666810607150       -1.68115558750163        2.64118334571236
H           -3.43647397313333       -1.60337207418422        1.31439476876680
H           -2.93624244767815       -3.31795881328718        3.09487742640057
H           -1.60762609715534       -2.21413918000920        2.72634710475368
H           -2.57522027451798       -2.75402215300008        5.29264481690827
H           -1.56796890077786       -1.38478531402389        4.85489632819610
H           -3.57966921817704       -0.63943006407926        6.07152545002996
H           -4.60916689065675       -1.42710386685800        4.88414601096802
H           -2.87591811298614        1.04427165132951        4.55918577181566
H           -4.58895353680661        0.85191562688960        4.25944574784043
H           -2.57711878302693        0.35670199393511        0.13295266243100
H           -0.42266119890119        0.98462431267236       -0.79480779699984
H            2.30363299283036        2.87884172002604        2.16601705877411
H            4.51229035892808        3.54019208436290        1.34358931065052
H            6.69472633927413        3.45887587037845        3.52667347496577
H            5.34425116356852        3.35103681502986        5.57601022976212
H            3.73983369679045        1.53819981048941        5.94448415056518
H            3.43203287745374       -0.23730571768036        4.24488761160921
H            3.46812247713437       -1.75756924725075        1.96964351717169
H            3.75508744364212       -4.16111550539990        1.38824108703096
H            2.27322097085379       -5.89096655382886        0.57626228242959
H            0.04077740203689       -4.75249603331574        0.35675463125915
H           -2.10146155156945       -3.68454839014965        0.80680779360650
H           -3.82502038177335       -5.32916886252393        1.31273851919512
H           -5.52539110011220       -5.51601096841560        3.08756491924976
H           -7.57658286842862       -4.18047804809518        3.02056865091758
H           -8.01386481182212       -2.63434753838169        1.14036507722711
H           -7.89555241131550       -1.17670163870041       -1.18135698697129
H           -7.17755291717941       -0.04867034554704       -3.26403821598330
H           -4.98519860883468       -0.51934524353195       -4.24540814650788
H           -3.45088480856629       -2.15279984868388       -3.21553613025354
H           -3.40937725325554       -4.64552301937326       -3.14022372576137
H           -1.25722095685743       -5.66886619918508       -3.61240607745559
H            1.14641897973473       -5.51394768928559       -3.97737943612943
H            0.38563712444592       -7.07053237470100       -3.65330664180466
H            3.31607540847954       -6.46534584208052       -3.10593479467218
H            2.70066287891131       -7.31909564102858       -4.52535825337973
H            3.44730665018787       -8.92020717463386       -2.76193839897032
H            1.71699722028832       -9.06658677351209       -3.08090354652427
H            2.10497964538076       -9.04490155026097       -0.64961606826161
H            3.02038458438859       -7.54175030760664       -0.79090582398419
H            0.06299174718332       -7.92165072534215       -1.45392777721130
H            0.67398335371926       -7.13204353170737       -0.01324765311591
H            1.88082175828473       -3.79861994464903       -3.13594435149741
H            3.41416074164619       -2.09481702208613       -2.32327494792915
H            5.80245239027854       -1.85821941324064       -1.61412618565622
H            7.11097644575013        0.08979380981014       -0.87850679990355
H            8.64013424414700        2.63781322720057        2.36215343105564
