166
 energy: -249.288838452412 gnorm: 0.000140668272 xtb: 6.7.1 (edcfbbe)
N            9.92788044427855        6.23662861631604       -1.82796389093940
C            9.34044125543235        5.43838614793513       -1.23324514659518
C            8.62383095401543        4.45991440228512       -0.55691517517699
C            7.48702047692345        3.89699346645431       -1.13088279352877
C            6.72115049433053        2.95843164743162       -0.47121211915176
N            5.55577977386527        2.45972841918055       -1.05131499429907
C            5.48622152802460        1.81668239869766       -2.27764091741389
C            6.44564333875966        1.70622250285072       -3.27273742112763
C            6.13048352195909        0.96277155902675       -4.39622324980772
C            4.89118097491612        0.34297929843643       -4.53132215888366
C            3.93926019092668        0.42946716775359       -3.53162747868410
C            4.23858868395961        1.15656578344230       -2.38962424610277
C            3.52247449752054        1.42123830845900       -1.17212576827591
C            2.29925500994041        1.01228317112467       -0.67741099307208
C            1.86962101051605        1.48542849342319        0.56272618367012
C            0.58772571126738        1.05924479296675        1.12610351200133
C            0.39578875762953        0.97932330135314        2.50494201635972
C           -0.83162101576349        0.63788752783575        3.04178131346447
C           -1.91871468291480        0.34844059410521        2.22769889568962
C           -3.31996377892207        0.00185160664402        2.71583799064753
C           -4.26095232079693        0.89579196033356        1.92095586416295
C           -5.30678672859616        0.42132625592987        1.14188580933123
C           -6.10992954022134        1.28934287278912        0.42553610852365
C           -5.89524805246444        2.66030922908834        0.48636210963211
N           -6.70923390374111        3.53552088927907       -0.24486333772536
C           -6.26772608200254        4.54867867380233       -1.07114932324170
C           -4.97131674837309        4.91155689488631       -1.40996815452147
C           -4.80620001235790        5.96481621912734       -2.28946954495467
C           -5.89830150361872        6.63908615781654       -2.83045623731838
C           -7.19144189485955        6.26461257753975       -2.51812779903623
C           -7.38265236749562        5.20982967159521       -1.63728164181336
C           -8.55188004504267        4.55389108474836       -1.11861426386198
C           -9.91403268069023        4.75346277796428       -1.29105911384241
C          -10.79415626921784        3.93368947171750       -0.61039849594084
C          -10.32983919981140        2.93711309263284        0.24470991626230
C           -8.97808373873258        2.72023377479253        0.43361285434665
C           -8.08881664313320        3.52405248152867       -0.26666299529554
C           -4.86155066050086        3.14998385186549        1.28106327308162
C           -4.05630139515729        2.27397895369400        1.97763589849347
C           -3.55657127104522       -1.49184878913677        2.44512773237417
C           -2.56735539922540       -2.36449535486534        3.21986333647810
C           -2.42283396821546       -1.92152278832464        4.68362371529452
C           -3.55523001544885       -0.98479099790426        5.08553504384944
C           -3.58628275860583        0.27647633891243        4.21753869548470
C           -1.71471532436086        0.38844367860214        0.84766400077037
C           -0.49723226256498        0.73893359092703        0.30730140774937
C            2.66597436868234        2.41477381528273        1.25584622010698
C            3.89856301482950        2.81489616952853        0.79124741533185
C            4.35970482457652        2.26180869263282       -0.39764018141473
C            7.13472558537232        2.50924253291014        0.85675857211927
N            6.41271030140878        1.51632989720361        1.51845568213461
C            5.82299629717454        1.65749106567243        2.76447182479277
C            5.97745362099178        2.66396961500613        3.70637116465136
C            5.21427297193307        2.59511884681282        4.85795350256076
C            4.31198208986373        1.55564700625418        5.06968620313850
C            4.13734182938038        0.56093784830027        4.12495003856099
C            4.89145791462488        0.60968259641152        2.96260979749555
C            4.93475141351493       -0.20690019948543        1.78168384480717
C            4.22395578970833       -1.31534727630534        1.36195758432370
C            4.49363889010424       -1.85631800659842        0.10755666918508
C            3.66115987280480       -2.94597920920869       -0.40865067695715
C            3.28859606053978       -4.02344445443315        0.38823043798218
C            2.44967938212245       -5.00850694095119       -0.09613646339257
C            1.92729384116277       -4.94916784212106       -1.38585330171718
C            0.88805439477944       -5.93844175973569       -1.89680125004287
C           -0.46087468692380       -5.25384532431056       -1.69654580012909
C           -0.74988271507804       -4.70108042383630       -0.45063612156943
C           -1.96258530444705       -4.10001218285157       -0.18981662414736
C           -2.94107454201414       -4.04391517268837       -1.17688777716541
N           -4.19063244582851       -3.46987566392660       -0.89829778026335
C           -4.99111471005850       -3.78766352574363        0.18089935215503
C           -4.77626416927430       -4.69821280457360        1.20620037472551
C           -5.75171000238331       -4.81894889340057        2.17711654738838
C           -6.92266438410813       -4.06513574765932        2.13114486163506
C           -7.15854279337013       -3.18349779280706        1.09508966096646
C           -6.19206767863210       -3.04427742420017        0.10744206898734
C           -6.10366448829481       -2.24339547898503       -1.08190476615321
C           -6.95464893866530       -1.32275816789366       -1.67878680560218
C           -6.53297777041202       -0.67890590454198       -2.82518943850136
C           -5.27807389242092       -0.93939354942053       -3.37149506975289
C           -4.42170782062275       -1.86477844258644       -2.80641644190568
C           -4.84851191517588       -2.53115837623729       -1.66634941937321
C           -2.66347377773790       -4.57918817672292       -2.42847045188634
C           -1.43710131830112       -5.16907937994521       -2.68148961686768
C            1.15085189609487       -6.32350266736572       -3.36248249438528
C            2.49125568490779       -7.03897712619725       -3.50420140256518
C            2.47164567202953       -8.33917384874061       -2.70870534883701
C            2.16429824271925       -8.04622712941100       -1.24467215329046
C            0.85942399725738       -7.26422582743363       -1.10708856135882
C            2.30284912497527       -3.86512566464217       -2.17621360527728
C            3.16755499452237       -2.89635262412074       -1.70987413545846
C            5.53644677217601       -1.33195749383923       -0.67063959700431
C            6.26691015562316       -0.23754185697970       -0.26211860235036
C            5.90868669419281        0.37420862375835        0.93368877612536
C            8.25495948656276        3.06556949138542        1.43586603006469
C            9.03057866306039        4.01977536384991        0.78055006602610
C           10.17817790532262        4.52288445925583        1.37799938691096
N           11.11742583463010        4.93897107077370        1.90816082021333
H            7.16737499990663        4.25307713126680       -2.10036273147242
H            7.41250348071919        2.17594418086365       -3.17895438899437
H            6.86082729332767        0.86471099089630       -5.18484675962846
H            4.67684863899285       -0.21854086621753       -5.42837132821933
H            2.97993756652845       -0.05554819677455       -3.63469878744988
H            1.69803784894143        0.31259648364679       -1.23713265262615
H            1.22338654656217        1.17800371625254        3.17047503956289
H           -0.92211470684317        0.60822645100122        4.11648499621693
H           -5.50528858018273       -0.63483238744625        1.06598235314171
H           -6.89060881415440        0.89885121937003       -0.20812708469185
H           -4.11927053320901        4.38252564069940       -1.01078326288323
H           -3.80769029171858        6.26924673004111       -2.56580417371135
H           -5.72755377401625        7.45951341581967       -3.51114497298012
H           -8.03732412799583        6.77650942151079       -2.95117689405952
H          -10.27457228281154        5.53649217366737       -1.94062953223066
H          -11.85807413673104        4.07070051354218       -0.73268656643699
H          -11.04223982696220        2.32310510268477        0.77551715050821
H           -8.62729997829892        1.95912738739800        1.11388341846529
H           -4.70221203698592        4.21520639228553        1.35577543628448
H           -3.24909051712631        2.66443319810979        2.57975610378844
H           -4.57436533859357       -1.75590335303477        2.73526767225983
H           -3.44973700416661       -1.69275615798486        1.37809951565252
H           -2.92098471100567       -3.39702125363949        3.17558024508340
H           -1.59067553153245       -2.32377738697497        2.73209721920911
H           -2.42197601421178       -2.79277362359457        5.34098284687325
H           -1.46962585879814       -1.41168505234636        4.82453997848780
H           -3.44193474089243       -0.69453007790829        6.13221840412351
H           -4.50424914846558       -1.51706695057386        4.99908351649303
H           -2.87031127973018        1.00552085918754        4.59552429363372
H           -4.57508664186341        0.73180425660617        4.31446860984416
H           -2.53745091936126        0.16561626285886        0.18237675309825
H           -0.39815518067779        0.80069929387746       -0.76597823352392
H            2.29310106668155        2.84728785068233        2.17123045252926
H            4.48261564855301        3.54467196917132        1.33181379051709
H            6.66177848522893        3.48334166973744        3.54935366402757
H            5.31972312503485        3.36570586038422        5.60641706610450
H            3.73645802157602        1.53491204262235        5.98320297910043
H            3.42540948765653       -0.23589547442554        4.27988276240636
H            3.44068589700505       -1.73025931046641        1.97804576475369
H            3.67269735622257       -4.09940161477381        1.39544435393748
H            2.19834789470787       -5.82418279288828        0.56354212755973
H           -0.00798153722066       -4.72615099616765        0.33260684533140
H           -2.15172626667650       -3.66304250587652        0.77760759933162
H           -3.88157670561140       -5.30105955340438        1.23993128340957
H           -5.60503579039090       -5.51601589537302        2.98894862999440
H           -7.65835901137898       -4.18435851052147        2.91244255144995
H           -8.07394852042010       -2.61279931881363        1.04873163980465
H           -7.92686701031811       -1.12155864114574       -1.25308874124450
H           -7.17773554894979        0.04303286086379       -3.30414307744359
H           -4.96918252889275       -0.40699380249478       -4.25881019299972
H           -3.44840207576995       -2.05559061149541       -3.23279099754775
H           -3.41786310470577       -4.55058420236697       -3.20082902041433
H           -1.26417145629396       -5.57435606767570       -3.66528395797801
H            1.12393138830588       -5.44852159204537       -4.01164634261536
H            0.36571408877925       -7.00719522146829       -3.69260253651646
H            3.29397274269425       -6.39513513550374       -3.13817859757260
H            2.68305232752644       -7.25017965389759       -4.55843025183157
H            3.43442934497321       -8.84685420968219       -2.79213390789689
H            1.70652909247031       -9.00333938765440       -3.11865219455992
H            2.08382255041693       -8.98154382007597       -0.68602412471536
H            2.98964278938292       -7.47200805310376       -0.82088714854342
H            0.03923718384211       -7.86786653198987       -1.50543595569697
H            0.63395983796204       -7.08333087089365       -0.05544473543322
H            1.90525675397492       -3.75812828645176       -3.17359872048811
H            3.43898202271294       -2.06545365082228       -2.34429890281018
H            5.77952618725918       -1.80898259448248       -1.60813156823933
H            7.08514248083488        0.13658211622252       -0.85906994377711
H            8.57874442293719        2.71398734582702        2.40559655596938
