  57
  -95.8921008569000       0.290319451620500      !
 F         -2.5349465561        2.2686199874        1.4525010704
 C         -1.5340837297        1.5016197710        0.9592741610
 C         -0.2218174101        1.8758433386        1.1928277786
 C          0.8188658646        1.0941228282        0.6886542241
 N          2.0942239646        1.4213692880        0.8475595856
 C          3.0845986594        0.6769589024        0.3547388251
 C          4.4440001626        1.1945454707        0.4945361378
 C          5.3737667502        1.1087235744       -0.5420666385
 C          6.6405136010        1.6350601709       -0.3844146354
 C          6.9987054756        2.2573466120        0.8013188975
 C          6.0731594476        2.3671654942        1.8264667797
 C          4.8033503909        1.8463150010        1.6749936535
 C          2.7744146109       -0.5356069047       -0.2929205291
 C          3.7904369758       -1.4944753323       -0.7308647122
 C          3.6201856763       -2.1559727807       -1.9466965803
 C          4.5526212451       -3.0812281042       -2.3741340901
 C          5.6589795070       -3.3681724602       -1.5913058194
 C          5.8203513479       -2.7339643985       -0.3693502568
 C          4.8940087648       -1.8052244023        0.0628635001
 N          1.5031419710       -0.8630071428       -0.4968209841
 C          0.4984726201       -0.1036372768       -0.0587652607
 C         -0.8340719226       -0.4353687292       -0.2756870852
 C         -1.8601749187        0.3663426496        0.2321733443
 N         -3.2198067339        0.0194874603        0.0165983707
 C         -3.8264499171       -0.9443870309        0.8049618581
 C         -3.1274199322       -1.6456896080        1.7831633830
 C         -3.7662955409       -2.6028760981        2.5511657884
 C         -5.1098909346       -2.8741932538        2.3591212532
 C         -5.8225208106       -2.1803094892        1.3943956342
 C         -5.1920528029       -1.2207927026        0.6213670659
 O         -5.9488106824       -0.5639259619       -0.3095061675
 C         -5.3347474506        0.3924850991       -1.0710479935
 C         -6.1071630656        1.0549155479       -2.0090596606
 C         -5.5378168524        2.0253519320       -2.8178176743
 C         -4.1929002231        2.3265856108       -2.6900073928
 C         -3.4131262215        1.6694019313       -1.7552513322
 C         -3.9711569276        0.6998581311       -0.9273140499
 H          0.0003951850        2.7683681781        1.7523977920
 H          5.0965135346        0.6412385441       -1.4753047928
 H          7.3524150094        1.5641180201       -1.1935951722
 H          7.9918557020        2.6642475887        0.9209609104
 H          6.3425987976        2.8638405370        2.7473134936
 H          4.0749274705        1.9292878555        2.4674699959
 H          2.7532054832       -1.9283528626       -2.5485511464
 H          4.4155164261       -3.5822307162       -3.3215075843
 H          6.3889104318       -4.0895455707       -1.9274911968
 H          6.6717501544       -2.9685357845        0.2525680896
 H          5.0168643028       -1.3265907246        1.0230874637
 H         -1.0710737187       -1.3260713190       -0.8342004407
 H         -2.0812288029       -1.4338587187        1.9374327057
 H         -3.2068312693       -3.1357879854        3.3040880874
 H         -5.6078475589       -3.6197151161        2.9583464436
 H         -6.8713809871       -2.3650955279        1.2270630501
 H         -7.1507031302        0.7961971211       -2.0887376072
 H         -6.1461967523        2.5399872681       -3.5443725809
 H         -3.7425581466        3.0781436995       -3.3196232033
 H         -2.3641813102        1.9030746662       -1.6613939797
  57
  -95.8917338051000       0.196875106928449      !
 F         -2.5433582140        2.3792097459        1.2057979401
 C         -1.5374248986        1.5610186008        0.8161689069
 C         -0.2277887595        1.9731560905        0.9923979411
 C          0.8178140068        1.1403079570        0.5908808801
 N          2.0916007185        1.4664557225        0.7606105263
 C          3.0872935576        0.6766500870        0.3570050527
 C          4.4486000362        1.0882189390        0.6885888784
 C          5.4207040043        0.1695319689        1.0865931111
 C          6.6915753121        0.5995472996        1.4127478185
 C          7.0125142603        1.9469838452        1.3558811034
 C          6.0453047153        2.8681008890        0.9872620032
 C          4.7717064717        2.4459590006        0.6610589346
 C          2.7789510177       -0.5113762230       -0.3367191120
 C          3.7911680840       -1.3436109115       -0.9898425698
 C          4.8347514028       -0.7764180013       -1.7206571482
 C          5.7530166639       -1.5847069769       -2.3612554399
 C          5.6435878931       -2.9646237697       -2.2864574705
 C          4.5980773515       -3.5342138053       -1.5784496693
 C          3.6727826797       -2.7317965114       -0.9390326316
 N          1.5118267309       -0.8896384805       -0.4581539646
 C          0.5035637946       -0.1367403378       -0.0157262220
 C         -0.8261664424       -0.5156572965       -0.1575922789
 C         -1.8572750015        0.3341614386        0.2533414602
 N         -3.2167025805       -0.0341593749        0.0759749059
 C         -3.8458214938       -0.8624522034        0.9899196851
 C         -3.1641269059       -1.4307781394        2.0618580979
 C         -3.8258040863       -2.2532446681        2.9564835961
 C         -5.1747657622       -2.5197391436        2.7986589249
 C         -5.8697834810       -1.9576602473        1.7397675702
 C         -5.2166309146       -1.1337258975        0.8397888864
 O         -5.9562409613       -0.6024264317       -0.1805875612
 C         -5.3190280829        0.2187842850       -1.0699764113
 C         -6.0732540843        0.7531328964       -2.0999807365
 C         -5.4799086273        1.5827440521       -3.0379129613
 C         -4.1290966615        1.8701976687       -2.9469256664
 C         -3.3674351320        1.3404911662       -1.9207781853
 C         -3.9497648168        0.5152809733       -0.9634125094
 H         -0.0120106066        2.9249635928        1.4467680900
 H          5.1737298224       -0.8796014216        1.1531695246
 H          7.4363475328       -0.1202331092        1.7195581983
 H          8.0092753804        2.2775758553        1.6079503063
 H          6.2857899652        3.9208377031        0.9545808351
 H          4.0112024901        3.1567297547        0.3751655516
 H          4.9150172679        0.2979223531       -1.7960214564
 H          6.5558723942       -1.1364950864       -2.9280283258
 H          6.3665220599       -3.5925544749       -2.7857474094
 H          4.5016410822       -4.6090198394       -1.5274663829
 H          2.8526926823       -3.1669883459       -0.3881090811
 H         -1.0577530818       -1.4641040688       -0.6138031154
 H         -2.1138616465       -1.2203844510        2.1887258025
 H         -3.2802869398       -2.6842802198        3.7814453100
 H         -5.6908027357       -3.1597380153        3.4965732002
 H         -6.9220628063       -2.1424745013        1.5952455513
 H         -7.1219494329        0.5076995309       -2.1484837246
 H         -6.0741458342        1.9973599662       -3.8365779725
 H         -3.6593218955        2.5102256135       -3.6773410813
 H         -2.3138891902        1.5626349922       -1.8559000083
  57
  -95.8914491646000       0.145673008767956      !
 F         -2.5316888603        2.0750329472        1.7081607657
 C         -1.5316011504        1.3676199212        1.1306978088
 C         -0.2201721793        1.7413735403        1.3692621221
 C          0.8204321089        1.0243636262        0.7771991842
 N          2.0966023282        1.3084141405        1.0012084364
 C          3.0865542520        0.6186476538        0.4345650645
 C          4.4513961281        0.9443279853        0.8424544674
 C          5.4048463253       -0.0482172876        1.0717660721
 C          6.6781255470        0.2930690943        1.4829769968
 C          7.0194586607        1.6226369164        1.6769876831
 C          6.0708052417        2.6120623338        1.4745605928
 C          4.7942794652        2.2783062553        1.0664451995
 C          2.7731808999       -0.3963323504       -0.4920633479
 C          3.7839879471       -1.0885223807       -1.2929787661
 C          4.8527795096       -0.4033240548       -1.8699802140
 C          5.7757080612       -1.0801458731       -2.6428019213
 C          5.6449730953       -2.4434662520       -2.8567469515
 C          4.5722105830       -3.1257680756       -2.3065775919
 C          3.6434970914       -2.4547106289       -1.5348692089
 N          1.5027512708       -0.7290257466       -0.6937899929
 C          0.5002574067       -0.0887301318       -0.0914523727
 C         -0.8310320128       -0.4378326170       -0.2888449873
 C         -1.8578211606        0.2887054736        0.3215698875
 N         -3.2159282799       -0.0621320518        0.1107473492
 C         -3.9557528550       -0.6261794236        1.1383535408
 C         -3.3795866417       -0.9820007304        2.3543020985
 C         -4.1488584057       -1.5408894212        3.3588523402
 C         -5.5018764261       -1.7603658550        3.1666532693
 C         -6.0882734313       -1.4293227941        1.9559119644
 C         -5.3257505759       -0.8706444610        0.9450853032
 O         -5.9567447486       -0.5818631836       -0.2337200996
 C         -5.2100396230       -0.0315457151       -1.2383597211
 C         -5.8582169080        0.2592153127       -2.4263915437
 C         -5.1599282330        0.8298543705       -3.4781134289
 C         -3.8132968702        1.1152906920       -3.3350005563
 C         -3.1569280861        0.8281479355       -2.1513750127
 C         -3.8399415482        0.2433022096       -1.0887448022
 H          0.0012656685        2.5757878413        2.0125495065
 H          5.1407938013       -1.0871624487        0.9409186643
 H          7.4085064496       -0.4830995670        1.6583918058
 H          8.0182761002        1.8848504069        1.9929947492
 H          6.3278844980        3.6487772983        1.6370154830
 H          4.0479589405        3.0422730601        0.9090534692
 H          4.9514863746        0.6617224880       -1.7205208748
 H          6.6009460846       -0.5404921055       -3.0843842548
 H          6.3723509758       -2.9695392565       -3.4571269747
 H          4.4590427311       -4.1859253475       -2.4807838040
 H          2.8032523632       -2.9777398843       -1.1040217548
 H         -1.0667304661       -1.2730543344       -0.9279078337
 H         -2.3243517358       -0.8187593135        2.5071513962
 H         -3.6834778954       -1.8055832963        4.2954305361
 H         -6.1025655287       -2.1914986281        3.9516803750
 H         -7.1378310327       -1.5956466289        1.7738362948
 H         -6.9099084487        0.0350317415       -2.5039796750
 H         -5.6713855808        1.0538654000       -4.4006289213
 H         -3.2646703519        1.5671939280       -4.1465617914
 H         -2.1090694993        1.0583637878       -2.0428969333
  57
  -95.8913965024000       0.137777156991490      !
 F         -2.5307753636        2.5205945020        0.9722158949
 C         -1.5330096017        1.6717760188        0.6284665087
 C         -0.2204193002        2.0876013842        0.7712827471
 C          0.8208995879        1.2186192911        0.4426859348
 N          2.0963517219        1.5390207609        0.6117332028
 C          3.0856481374        0.7057678748        0.2900474981
 C          4.4447589171        1.1040340483        0.6483944216
 C          5.3664947697        0.1892657156        1.1590027353
 C          6.6353844751        0.6039820288        1.5114966089
 C          7.0036418469        1.9328035421        1.3685842247
 C          6.0856960626        2.8517038960        0.8862989799
 C          4.8138378562        2.4449615890        0.5338341645
 C          2.7735633774       -0.5200779053       -0.3331942035
 C          3.7884637233       -1.4127741181       -0.8934014287
 C          4.8811233201       -0.9170474706       -1.6045621945
 C          5.8081516112       -1.7848589083       -2.1471085491
 C          5.6585170346       -3.1545446309       -1.9948040194
 C          4.5630396577       -3.6544663355       -1.3098102020
 C          3.6298561541       -2.7925664001       -0.7671195685
 N          1.5028632320       -0.8874891234       -0.4539980479
 C          0.4986583764       -0.0946876939       -0.0766546443
 C         -0.8331327312       -0.4690334855       -0.2021859020
 C         -1.8623272547        0.4100934825        0.1534247577
 N         -3.2187541014        0.0201840569        0.0324591612
 C         -3.7583174696       -0.9122818373        0.9058974947
 C         -2.9964000778       -1.5334467425        1.8917977928
 C         -3.5696043629       -2.4619148206        2.7425577975
 C         -4.9111314768       -2.7826831296        2.6306510072
 C         -5.6883365957       -2.1622223590        1.6661928063
 C         -5.1235447573       -1.2317619925        0.8108719141
 O         -5.9473520005       -0.6439208991       -0.1082744710
 C         -5.4004743503        0.2800048075       -0.9558347684
 C         -6.2422156080        0.8673917106       -1.8843377964
 C         -5.7443642021        1.7945166145       -2.7851576737
 C         -4.3996623546        2.1214290104       -2.7625379997
 C         -3.5517374529        1.5390073300       -1.8378646976
 C         -4.0387116141        0.6224114074       -0.9105274611
 H          0.0009973910        3.0665513761        1.1607398988
 H          5.0808219461       -0.8435869423        1.2924358901
 H          7.3405698404       -0.1124760381        1.9066886500
 H          7.9988331127        2.2513906775        1.6411469256
 H          6.3631585521        3.8909674511        0.7856201872
 H          4.0914252208        3.1546618477        0.1599405094
 H          4.9947403812        0.1481524036       -1.7402682758
 H          6.6511685784       -1.3913415506       -2.6957223174
 H          6.3892946209       -3.8290943969       -2.4157842948
 H          4.4351994694       -4.7214970299       -1.1997678838
 H          2.7716274962       -3.1729881232       -0.2340701751
 H         -1.0705152417       -1.4418003389       -0.6007347477
 H         -1.9527273017       -1.2812955153        1.9904598785
 H         -2.9599872159       -2.9325621912        3.4980410646
 H         -5.3577221381       -3.5066104341        3.2935084033
 H         -6.7386821031       -2.3817236096        1.5617850475
 H         -7.2822403576        0.5832897388       -1.8843798500
 H         -6.4061950457        2.2514267526       -3.5035627716
 H         -4.0020019065        2.8335574900       -3.4686090501
 H         -2.5030239629        1.7912498264       -1.8328885363
  57
  -95.8910360461000       9.408555974227811E-002 !
 F         -2.5152173608        2.0180371533        1.8131245492
 C         -1.5206998486        1.3310137244        1.2018826611
 C         -0.2069182024        1.6697342871        1.4768534974
 C          0.8301761937        0.9779581929        0.8497793503
 N          2.1075661325        1.2118825094        1.1180640958
 C          3.0933396431        0.5555241327        0.5058725392
 C          4.4524468209        0.7860971579        0.9869222837
 C          5.3790668460       -0.2524265579        1.0922007854
 C          6.6436632545       -0.0083239123        1.5893700825
 C          7.0033907700        1.2674680401        1.9955998450
 C          6.0815921586        2.2989157317        1.9160406423
 C          4.8143684246        2.0624909893        1.4211554600
 C          2.7739270290       -0.3476955634       -0.5300250358
 C          3.7762219353       -0.9429910654       -1.4136899178
 C          3.6062285792       -2.2560161281       -1.8527135445
 C          4.5196699327       -2.8264310052       -2.7177766211
 C          5.6073326286       -2.0944577952       -3.1655642943
 C          5.7692505145       -0.7810211753       -2.7527069058
 C          4.8614582818       -0.2047957283       -1.8862995659
 N          1.5012322980       -0.6470808074       -0.7651430884
 C          0.5028077636       -0.0587970860       -0.1062432978
 C         -0.8299112845       -0.3869418884       -0.3261172899
 C         -1.8544028765        0.3047981059        0.3286898460
 N         -3.2116457453       -0.0312245962        0.1007547961
 C         -3.9759596386       -0.5691384465        1.1264606697
 C         -3.4295534573       -0.9003860559        2.3632548516
 C         -4.2250050516       -1.4237818732        3.3664253943
 C         -5.5758980883       -1.6357197832        3.1525289898
 C         -6.1316150930       -1.3379294768        1.9191668431
 C         -5.3421981231       -0.8148593239        0.9096903601
 O         -5.9443003813       -0.5659396454       -0.2927171389
 C         -5.1719790954       -0.0555263470       -1.2985751849
 C         -5.7911956206        0.1840668804       -2.5133662478
 C         -5.0704917500        0.7195233997       -3.5681824213
 C         -3.7315744803        1.0260802012       -3.3990404124
 C         -3.1042047630        0.7893572201       -2.1888341161
 C         -3.8071846476        0.2316313989       -1.1241524896
 H          0.0183215341        2.4560046145        2.1770550029
 H          5.1000054239       -1.2532677904        0.7978761623
 H          7.3520694304       -0.8200361145        1.6683332268
 H          7.9948185255        1.4536336599        2.3812315341
 H          6.3522817370        3.2919385642        2.2444142701
 H          4.0883182154        2.8588958445        1.3596057112
 H          2.7535804043       -2.8173458164       -1.5016359847
 H          4.3824933216       -3.8465462543       -3.0460433183
 H          6.3221839169       -2.5420560194       -3.8399454342
 H          6.6059834923       -0.2008122597       -3.1131162867
 H          4.9837780532        0.8243897819       -1.5828959596
 H         -1.0686153136       -1.1784385078       -1.0178097501
 H         -2.3760352624       -0.7472192120        2.5359777050
 H         -3.7815679092       -1.6653931864        4.3197135139
 H         -6.1977131367       -2.0361742397        3.9372721486
 H         -7.1776043049       -1.5037443708        1.7170812466
 H         -6.8386748402       -0.0528222146       -2.6087317161
 H         -5.5584516840        0.9006020265       -4.5126224055
 H         -3.1658873569        1.4554435651       -4.2111527505
 H         -2.0630275097        1.0391805518       -2.0625980067
  57
  -95.8905444456000       5.592410284485872E-002 !
 F         -2.5055814748        1.9876963208        1.9448003936
 C         -1.5181394098        1.2754976226        1.3511118239
 C         -0.2010915622        1.6249316491        1.6005419528
 C          0.8321195483        0.9363497877        0.9636268345
 N          2.1117364000        1.2318477977        1.1519462213
 C          3.0892965537        0.5899171261        0.5116017505
 C          4.4660731934        0.9535399636        0.8373500397
 C          5.4709589728       -0.0071038500        0.9579017586
 C          6.7607050097        0.3722296763        1.2728040251
 C          7.0681597972        1.7083861594        1.4781264309
 C          6.0698767599        2.6649894549        1.3871895355
 C          4.7769820514        2.2930964120        1.0755076999
 C          2.7563419662       -0.4029465006       -0.4321290354
 C          3.7326327594       -1.0303805160       -1.3249847639
 C          4.7321631625       -0.2863728114       -1.9508838583
 C          5.6070242727       -0.8977034560       -2.8274505867
 C          5.4961442017       -2.2528084119       -3.0969435311
 C          4.4926020907       -2.9935985648       -2.4942010687
 C          3.6120544448       -2.3882047568       -1.6187458490
 N          1.4864645993       -0.7615331563       -0.5840235428
 C          0.4976159631       -0.1512854344        0.0688252708
 C         -0.8355798381       -0.4935603061       -0.1188901278
 C         -1.8584775127        0.2297026595        0.5049422591
 N         -3.2116353914       -0.0712836007        0.2154515922
 C         -4.0628834832       -0.5632189271        1.1938203466
 C         -3.6307670192       -0.8289572570        2.4899721462
 C         -4.5130717396       -1.3092901463        3.4410161990
 C         -5.8376701856       -1.5439393868        3.1155345981
 C         -6.2794211725       -1.3108606072        1.8235604658
 C         -5.4033003966       -0.8297103205        0.8663809417
 O         -5.8961239213       -0.6455857911       -0.3962919409
 C         -5.0455334728       -0.1538031328       -1.3465509589
 C         -5.5597656396        0.0418130187       -2.6171428171
 C         -4.7575338927        0.5586104692       -3.6210719771
 C         -3.4439735687        0.8942571585       -3.3440150755
 C         -2.9215378019        0.6999778593       -2.0779056494
 C         -3.7045077708        0.1552988331       -1.0630099093
 H          0.0281426326        2.4370559997        2.2693656503
 H          5.2354116979       -1.0513909990        0.8156551992
 H          7.5315395774       -0.3791563378        1.3628700083
 H          8.0800011643        2.0009033188        1.7165285502
 H          6.3015089708        3.7061190665        1.5591857119
 H          3.9928614050        3.0314566892        1.0023372705
 H          4.8121665741        0.7735746224       -1.7602998865
 H          6.3765585269       -0.3122097936       -3.3088295419
 H          6.1837176113       -2.7267861489       -3.7816589341
 H          4.3939718708       -4.0473672461       -2.7110111019
 H          2.8226705829       -2.9561778626       -1.1500228140
 H         -1.0788708679       -1.3085113054       -0.7811395737
 H         -2.5980778735       -0.6589738704        2.7501276121
 H         -4.1583646640       -1.5007619037        4.4416667885
 H         -6.5267850939       -1.9139231722        3.8579637961
 H         -7.3011073056       -1.4973117992        1.5339559668
 H         -6.5917159306       -0.2139733315       -2.7957315972
 H         -5.1632505003        0.7058023186       -4.6092659470
 H         -2.8152674428        1.3129692302       -4.1142653765
 H         -1.8991693352        0.9722909724       -1.8718463430
  57
  -95.8903325747000       4.469201148612374E-002 !
 F         -2.5092186956        1.9386839043        1.9619390684
 C         -1.5187916080        1.2270263600        1.3723946382
 C         -0.2034519226        1.5766659063        1.6287112723
 C          0.8329201483        0.8948110427        0.9895049344
 N          2.1104503882        1.1998401937        1.1750339620
 C          3.0908714313        0.5715878974        0.5250197309
 C          4.4650874572        0.9571770081        0.8343225433
 C          5.4906860777        0.0159018461        0.9317387882
 C          6.7776224132        0.4187346083        1.2287241177
 C          7.0619962440        1.7592363849        1.4388139559
 C          6.0434525126        2.6964502447        1.3715012767
 C          4.7534235147        2.3010329692        1.0779132567
 C          2.7618565889       -0.4232034401       -0.4177963609
 C          3.7398068965       -1.0316449340       -1.3228508915
 C          4.7073756242       -0.2623170759       -1.9680411359
 C          5.5832736610       -0.8518820778       -2.8583146993
 C          5.5058157826       -2.2106922471       -3.1207992669
 C          4.5347332390       -2.9770897978       -2.4974110537
 C          3.6521613520       -2.3931922582       -1.6090263121
 N          1.4954191504       -0.7955780196       -0.5630561051
 C          0.5034175324       -0.1925673877        0.0926435426
 C         -0.8283515992       -0.5391017971       -0.0975119015
 C         -1.8549853102        0.1836512220        0.5211790355
 N         -3.2069492734       -0.1075097419        0.2175701244
 C         -4.0787080951       -0.5668092526        1.1938938022
 C         -3.6602576815       -0.8448968066        2.4920264706
 C         -4.5625944019       -1.2883433352        3.4421588013
 C         -5.8944759662       -1.4731988731        3.1138745444
 C         -6.3232289272       -1.2297173183        1.8194749177
 C         -5.4266450100       -0.7864278237        0.8629051350
 O         -5.9078162660       -0.5909355247       -0.4024600690
 C         -5.0367458572       -0.1342519108       -1.3515787099
 C         -5.5399410664        0.0735897755       -2.6247353141
 C         -4.7174193101        0.5578811708       -3.6283903806
 C         -3.3941890951        0.8496880420       -3.3481065953
 C         -2.8831070063        0.6441120937       -2.0791376984
 C         -3.6869445575        0.1303674607       -1.0643158177
 H          0.0222454338        2.3873171754        2.3004792399
 H          5.2738680461       -1.0319136080        0.7858504291
 H          7.5645165814       -0.3177636668        1.3011061737
 H          8.0716733191        2.0702244751        1.6626460872
 H          6.2573972273        3.7409264119        1.5461191980
 H          3.9541474394        3.0243685514        1.0194470120
 H          4.7603548486        0.8001638296       -1.7820137291
 H          6.3267304767       -0.2466833106       -3.3560521385
 H          6.1942993887       -2.6677599749       -3.8160322732
 H          4.4629922240       -4.0343613065       -2.7075889863
 H          2.8884832449       -2.9818507631       -1.1234520105
 H         -1.0676272055       -1.3551301846       -0.7598942378
 H         -2.6224632908       -0.7128807263        2.7542599534
 H         -4.2182172553       -1.4896093092        4.4445006967
 H         -6.5993611176       -1.8128750187        3.8560104833
 H         -7.3504229256       -1.3784590572        1.5274921938
 H         -6.5795036098       -0.1475207354       -2.8055672446
 H         -5.1144036414        0.7136880669       -4.6187939256
 H         -2.7487407404        1.2432504440       -4.1177753549
 H         -1.8529579402        0.8836426280       -1.8714751483
  57
  -95.8900921718000       3.465360161834397E-002 !
 F         -2.5051446338        1.9064374035        1.9928287281
 C         -1.5137358857        1.1963725265        1.4031409337
 C         -0.1988509991        1.5474722190        1.6596104358
 C          0.8380933403        0.8715812926        1.0147907988
 N          2.1142606041        1.1881078025        1.1872587706
 C          3.0956986297        0.5683309176        0.5294214359
 C          4.4648644525        0.9867658376        0.8170939682
 C          5.5189426774        0.0759778129        0.8969009408
 C          6.7977748086        0.5163254591        1.1757778202
 C          7.0459546249        1.8639248363        1.3863680574
 C          5.9995665482        2.7710104831        1.3362986973
 C          4.7180516336        2.3382694559        1.0597004489
 C          2.7678985822       -0.4389119727       -0.4001311137
 C          3.7361516033       -1.0547043776       -1.3110391320
 C          4.6947104508       -0.2945002814       -1.9796414927
 C          5.5526479258       -0.8954058437       -2.8800040201
 C          5.4655595381       -2.2560317400       -3.1299492908
 C          4.5038624663       -3.0137972498       -2.4820102938
 C          3.6397900201       -2.4187714017       -1.5831229551
 N          1.5029220286       -0.8218262316       -0.5326340560
 C          0.5102102032       -0.2198657013        0.1223383042
 C         -0.8209315314       -0.5684737026       -0.0673423089
 C         -1.8485336988        0.1558806131        0.5477817487
 N         -3.1991626555       -0.1244136116        0.2283924189
 C         -4.0868019110       -0.5791242975        1.1920597495
 C         -3.6841177028       -0.8757355211        2.4910430926
 C         -4.6017128395       -1.3139235996        3.4288388608
 C         -5.9334164874       -1.4741130247        3.0870986287
 C         -6.3469196121       -1.2118405157        1.7914058494
 C         -5.4348856348       -0.7744980671        0.8468684238
 O         -5.9009863138       -0.5603242071       -0.4211364841
 C         -5.0134245642       -0.1120179171       -1.3588332732
 C         -5.5006414829        0.1116071932       -2.6355701814
 C         -4.6607000346        0.5884286106       -3.6282789898
 C         -3.3357429831        0.8569330285       -3.3334428218
 C         -2.8405833015        0.6356282157       -2.0608409880
 C         -3.6624512571        0.1290720310       -1.0568788035
 H          0.0260730485        2.3581878859        2.3315494877
 H          5.3314965612       -0.9774742391        0.7511291547
 H          7.6073073401       -0.1965669920        1.2334406306
 H          8.0490806240        2.2038131654        1.5972182712
 H          6.1845093743        3.8205996419        1.5134601439
 H          3.8962412210        3.0371114088        1.0194333922
 H          4.7547733465        0.7693824909       -1.8040701813
 H          6.2893896907       -0.2974344220       -3.3961365928
 H          6.1388025102       -2.7212500334       -3.8346324574
 H          4.4233712443       -4.0722901584       -2.6826951078
 H          2.8811250279       -2.9997484987       -1.0807734640
 H         -1.0593990310       -1.3846227063       -0.7298618699
 H         -2.6466537417       -0.7618273336        2.7630240867
 H         -4.2696633001       -1.5304573336        4.4321525086
 H         -6.6502355141       -1.8091039526        3.8198529863
 H         -7.3738083063       -1.3411725501        1.4893049357
 H         -6.5419944205       -0.0906694440       -2.8276304303
 H         -5.0454013751        0.7569019923       -4.6214561964
 H         -2.6761757234        1.2439038510       -4.0944305252
 H         -1.8088008296        0.8576084615       -1.8422430485
