  80
  -121.694931518600       0.280985953153636      !
 C          7.2111103120       -2.8613987099        0.4251632440
 C          6.3097397967       -3.2071466261       -0.5673321063
 C          5.1393283813       -2.4878042477       -0.7243996884
 C          4.8593791120       -1.4043530570        0.1031612732
 C          3.5999490692       -0.6541233285       -0.0441462638
 C          2.4123089023       -1.3474449955       -0.0966591895
 C          1.1892501156       -0.6645396170       -0.1356863272
 N          0.0301084102       -1.3434486311       -0.2521158863
 C         -1.1049506237       -0.6904395571       -0.2099915329
 N         -2.2456300436       -1.4358749534       -0.4292206858
 C         -2.1625895594       -2.8404010649       -0.2916702248
 C         -2.6630293928       -3.6679490391       -1.2914781019
 C         -2.5915100733       -5.0416836753       -1.1555818877
 C         -2.0148846640       -5.6030119972       -0.0291388214
 C         -1.5140760786       -4.7799489203        0.9660499192
 C         -1.5895462830       -3.4060597221        0.8417024535
 C         -3.4002540971       -0.8999808254       -1.0144483290
 C         -3.3242931560        0.1191673595       -1.9597249299
 C         -4.4789472134        0.6515644940       -2.5014670040
 C         -5.7174248352        0.1550223969       -2.1329551789
 C         -5.7952684349       -0.8859216933       -1.2211363930
 C         -4.6487632110       -1.4099104778       -0.6601040503
 C         -1.1097431763        0.7308093208        0.0664849324
 N         -2.2639533276        1.4351061675        0.3786461024
 C         -2.3127646440        2.8134460544        0.0944498946
 C         -1.8434971808        3.2928283534       -1.1251735317
 C         -1.9118878170        4.6410905440       -1.4165047011
 C         -2.4518254523        5.5300803857       -0.5022663519
 C         -2.9115949540        5.0588098019        0.7154766068
 C         -2.8390385704        3.7121596229        1.0181092823
 C         -3.2389238009        0.8551309343        1.1995163548
 C         -2.8889980800       -0.1124272980        2.1394741037
 C         -3.8600495773       -0.7138403759        2.9165763250
 C         -5.1865590102       -0.3392114196        2.7908305035
 C         -5.5351086853        0.6472237485        1.8820435184
 C         -4.5749058592        1.2384226998        1.0863856678
 N          0.0087127541        1.4088690266        0.0574271254
 C          1.1797262541        0.7513651224       -0.0783575052
 C          2.3965345256        1.4476415487       -0.0851824209
 C          3.5931325016        0.7666601224       -0.0761146355
 C          4.8582023134        1.5197297670       -0.1271411660
 C          5.0745883892        2.5981641128        0.7258410417
 C          6.2638876577        3.3021194891        0.6798866220
 C          7.2492095582        2.9454682092       -0.2250450376
 C          7.0354954026        1.8852595320       -1.0902798707
 C          5.8501979053        1.1768244591       -1.0427392882
 C          5.7684074232       -1.0690290250        1.1036073726
 C          6.9341316274       -1.7936054970        1.2626328588
 H          8.1248624997       -3.4240300951        0.5480171112
 H          6.5195838889       -4.0410797290       -1.2215581999
 H          4.4402248351       -2.7529335308       -1.5047715074
 H          2.3959989709       -2.4266390758       -0.0818496463
 H         -3.1025331213       -3.2306571820       -2.1762244101
 H         -2.9793875384       -5.6752700090       -1.9396140812
 H         -1.9536440789       -6.6761936396        0.0718054964
 H         -1.0647357265       -5.2113301415        1.8483711972
 H         -1.1980428421       -2.7689211466        1.6187717731
 H         -2.3580163550        0.4819179448       -2.2769885269
 H         -4.4079163550        1.4516764774       -3.2234541283
 H         -6.6174530898        0.5708208962       -2.5598598421
 H         -6.7571366664       -1.2846370650       -0.9353560253
 H         -4.7076073241       -2.2066724733        0.0660287741
 H         -1.4164979181        2.6102194527       -1.8428741467
 H         -1.5458930279        4.9989799890       -2.3676032506
 H         -2.5080817802        6.5827708254       -0.7349908800
 H         -3.3212339720        5.7452624683        1.4418542993
 H         -3.1836184355        3.3537341951        1.9769922819
 H         -1.8504357780       -0.3810975693        2.2683670532
 H         -3.5748553315       -1.4699279099        3.6332900164
 H         -5.9427423947       -0.8070867286        3.4026224908
 H         -6.5667390198        0.9500682762        1.7822271619
 H         -4.8524081366        1.9874649361        0.3603589493
 H          2.3707097227        2.5267026860       -0.0972779903
 H          4.3117474050        2.8691571757        1.4418118437
 H          6.4240690980        4.1305801438        1.3548045298
 H          8.1793724168        3.4934608637       -0.2582111140
 H          7.7966013591        1.6086458878       -1.8053194122
 H          5.6838688546        0.3572063811       -1.7262633119
 H          5.5508000588       -0.2444502370        1.7664987388
 H          7.6294582660       -1.5247064963        2.0444922236
  80
  -121.694918392900       0.277110164047906      !
 C          7.2728383618       -2.8296085484        0.0718315869
 C          6.3062442431       -3.1405851421       -0.8693964613
 C          5.1188008319       -2.4332236810       -0.9049859208
 C          4.8854323768       -1.3970230200       -0.0051989844
 C          3.6124864370       -0.6560254072       -0.0399497027
 C          2.4294671728       -1.3597327621       -0.0618770822
 C          1.1987702299       -0.6895319165       -0.0438856235
 N          0.0427782642       -1.3762973606       -0.1587154178
 C         -1.0935279467       -0.7276568194       -0.1212097514
 N         -2.2373350117       -1.4689564338       -0.3612825205
 C         -2.2031291461       -2.8588471268       -0.1236630269
 C         -1.6680329243       -3.3553209734        1.0604951186
 C         -1.6537412283       -4.7159273872        1.2987975186
 C         -2.1751271449       -5.5971574231        0.3661420819
 C         -2.7038516780       -5.1064978915       -0.8155537209
 C         -2.7156739459       -3.7470691401       -1.0644579448
 C         -3.3134728227       -0.9299799600       -1.0779568149
 C         -4.6101863387       -1.3767597548       -0.8272854070
 C         -5.6740050460       -0.8390336328       -1.5225935103
 C         -5.4664819373        0.1548874653       -2.4660092111
 C         -4.1794073115        0.5917726258       -2.7278648868
 C         -3.1062000300        0.0446644801       -2.0508642488
 C         -1.1126779953        0.6937646514        0.1531347406
 N         -2.2751174720        1.4012618664        0.4071710967
 C         -2.2813733799        2.7914594141        0.1678008049
 C         -1.7747002994        3.2993868559       -1.0240351477
 C         -1.7950596797        4.6597138672       -1.2631378007
 C         -2.3249552202        5.5291587875       -0.3242976778
 C         -2.8276587516        5.0270185560        0.8638520907
 C         -2.8033902505        3.6679402132        1.1141877315
 C         -3.3236725645        0.8339433066        1.1422579931
 C         -3.0745970052       -0.1371233166        2.1089659259
 C         -4.1211400462       -0.7116085539        2.8048192447
 C         -5.4231783712       -0.3056639694        2.5688257567
 C         -5.6726793655        0.6840715734        1.6311718475
 C         -4.6357899881        1.2483482486        0.9165779212
 N          0.0040545320        1.3759509197        0.1760796808
 C          1.1784319218        0.7247546940        0.0418226723
 C          2.3885305857        1.4319162507        0.0345981126
 C          3.5914417969        0.7643693289       -0.0172060985
 C          4.8414772149        1.5410954551       -0.0878868138
 C          5.0735065147        2.5848917364        0.8034037708
 C          6.2413502537        3.3220269330        0.7331888707
 C          7.1887218805        3.0339084312       -0.2347052956
 C          6.9592923586        2.0073797886       -1.1358735052
 C          5.7957642351        1.2652108697       -1.0639978065
 C          5.8598143983       -1.0974050979        0.9434213301
 C          7.0432754175       -1.8099802660        0.9806926138
 H          8.2005436607       -3.3821047738        0.0992276665
 H          6.4786366039       -3.9368737202       -1.5791580770
 H          4.3693835034       -2.6689065184       -1.6471199474
 H          2.4246698967       -2.4389587292       -0.0818360939
 H         -1.2586843492       -2.6755252399        1.7907382980
 H         -1.2366821089       -5.0904605296        2.2220355025
 H         -2.1657190497       -6.6596885327        0.5574665740
 H         -3.1039869363       -5.7861699266       -1.5537646267
 H         -3.1174490619       -3.3688415996       -1.9931155990
 H         -4.7728841304       -2.1355764286       -0.0768071364
 H         -6.6743028544       -1.1901875692       -1.3179060937
 H         -6.3028138800        0.5809144162       -2.9990611536
 H         -4.0060742876        1.3555185887       -3.4715814701
 H         -2.0995857849        0.3603112138       -2.2831885582
 H         -1.3584087311        2.6287966480       -1.7589995675
 H         -1.3984898018        5.0431845558       -2.1917294991
 H         -2.3419383500        6.5915394562       -0.5157608562
 H         -3.2347651224        5.6975430283        1.6064885288
 H         -3.1855504935        3.2812132248        2.0475906944
 H         -2.0565232630       -0.4282656920        2.3225229332
 H         -3.9148633436       -1.4718621566        3.5437347636
 H         -6.2385226943       -0.7522045887        3.1173757207
 H         -6.6850416167        1.0107165363        1.4459114822
 H         -4.8316282762        2.0033307461        0.1701506323
 H          2.3515583863        2.5104680614        0.0549447046
 H          4.3393637614        2.8036904112        1.5657740711
 H          6.4132638520        4.1242422160        1.4363154925
 H          8.1013096143        3.6091246728       -0.2886922208
 H          7.6905294537        1.7842526196       -1.8991493258
 H          5.6163971120        0.4728419509       -1.7758051945
 H          5.6812321475       -0.3097126998        1.6605398269
 H          7.7902050925       -1.5691840976        1.7230347810
  80
  -121.694749689400       0.231804410483821      !
 C          7.3300178407       -2.5089634487       -0.9434182194
 C          7.1319384435       -1.1611641183       -1.1929851376
 C          5.9280928429       -0.5637718494       -0.8720100404
 C          4.9011989851       -1.3080406946       -0.2962094504
 C          3.6090688908       -0.6771326450        0.0238672633
 C          2.4447013132       -1.2752968050       -0.4031794752
 C          1.2041844008       -0.6623518877       -0.1813356655
 N          0.0556756926       -1.2983161093       -0.4961705359
 C         -1.0848356797       -0.6835203286       -0.3134341147
 N         -2.2356205118       -1.4265606506       -0.5066405824
 C         -2.1748999089       -2.5800895603       -1.3154332739
 C         -1.5361309698       -2.5409473053       -2.5504503159
 C         -1.4960756042       -3.6691377854       -3.3465471603
 C         -2.0947697852       -4.8456156363       -2.9277237340
 C         -2.7280740569       -4.8887820987       -1.6974521333
 C         -2.7659300472       -3.7667140599       -0.8915519292
 C         -3.3714789078       -1.2162908338        0.2871467937
 C         -4.6406656465       -1.4561959270       -0.2375002950
 C         -5.7622127846       -1.2371747794        0.5362933117
 C         -5.6393210387       -0.7677706650        1.8345660893
 C         -4.3806585947       -0.5417744763        2.3642847909
 C         -3.2515000645       -0.7775690140        1.6033316271
 C         -1.1045390120        0.7078986727        0.0874804052
 N         -2.2450569055        1.4897419209        0.0410920907
 C         -3.1949738684        1.3244450796       -0.9755981674
 C         -4.5338391364        1.6271351074       -0.7310369643
 C         -5.4750109665        1.4575975579       -1.7258408025
 C         -5.1024987896        0.9752210517       -2.9705526848
 C         -3.7727262452        0.6849513194       -3.2217325728
 C         -2.8204010007        0.8708969276       -2.2378418383
 C         -2.3105418436        2.6413766016        0.8529026241
 C         -2.7439766602        3.8523544181        0.3214481558
 C         -2.8307700120        4.9729163781        1.1257339607
 C         -2.4788554200        4.9034802962        2.4628826808
 C         -2.0363363794        3.7021036019        2.9911015585
 C         -1.9540081252        2.5756364797        2.1957506830
 N         -0.0080633262        1.2867479725        0.5052764688
 C          1.1600953862        0.6142012655        0.4327949348
 C          2.3460600949        1.1904865687        0.9071063946
 C          3.5549557029        0.5570299433        0.7258480815
 C          4.7719924006        1.1517773927        1.3048274262
 C          5.6379496704        0.3806516711        2.0765564965
 C          6.7669789915        0.9449987092        2.6388613802
 C          7.0498163184        2.2860997826        2.4388219216
 C          6.1903962920        3.0629383729        1.6805216202
 C          5.0569429057        2.5019453684        1.1213840346
 C          5.1043802366       -2.6650801577       -0.0628822498
 C          6.3120094553       -3.2591984132       -0.3799512695
 H          8.2732516260       -2.9734080674       -1.1906365296
 H          7.9192977083       -0.5725802316       -1.6408460137
 H          5.7744058988        0.4851459365       -1.0789336056
 H          2.4639729682       -2.2187949630       -0.9271861147
 H         -1.0658116615       -1.6291062908       -2.8823614038
 H         -0.9977856174       -3.6277392431       -4.3039086912
 H         -2.0638418145       -5.7244142470       -3.5540680608
 H         -3.1891329310       -5.8042622956       -1.3567908491
 H         -3.2502753651       -3.8078307683        0.0730594614
 H         -4.7355661631       -1.8015361217       -1.2559423222
 H         -6.7403655012       -1.4226526039        0.1185169220
 H         -6.5196711072       -0.5865519011        2.4322484802
 H         -4.2742726646       -0.1906780009        3.3800947789
 H         -2.2694085894       -0.6367077692        2.0308057686
 H         -4.8259452004        1.9828374741        0.2455505810
 H         -6.5092828063        1.6933716206       -1.5244453485
 H         -5.8437048180        0.8336638781       -3.7423484141
 H         -3.4704806670        0.3219945428       -4.1930429673
 H         -1.7783583093        0.6792364269       -2.4484597806
 H         -3.0076660682        3.9132510012       -0.7243264129
 H         -3.1668803452        5.9075690291        0.7013620023
 H         -2.5440171742        5.7811719894        3.0881210775
 H         -1.7572387213        3.6400737714        4.0326522178
 H         -1.6065884866        1.6441093541        2.6132883402
 H          2.2849825927        2.1345455060        1.4268567445
 H          5.4154006697       -0.6627608353        2.2450812807
 H          7.4290934192        0.3358687800        3.2368974951
 H          7.9355470278        2.7245259997        2.8746361140
 H          6.4046764841        4.1103562077        1.5235419959
 H          4.3927704427        3.1071121196        0.5208279353
 H          4.3146868570       -3.2495778623        0.3872770099
 H          6.4601951805       -4.3117612604       -0.1855683554
  80
  -121.694656783200       0.210099472314638      !
 C          7.3040029531       -2.6494837631       -0.7574823478
 C          6.4375858922       -2.3537468910       -1.7961272336
 C          5.2356465968       -1.7211139535       -1.5379162750
 C          4.8883132909       -1.3649338198       -0.2377806284
 C          3.6056869360       -0.6862471751        0.0192869602
 C          2.4463547066       -1.2381764311       -0.4782469745
 C          1.2050399180       -0.6387946074       -0.2275479301
 N          0.0602358375       -1.2436558647       -0.6104254257
 C         -1.0823817663       -0.6481373352       -0.3833818020
 N         -2.2301456151       -1.3711342842       -0.6549872840
 C         -2.1570922031       -2.4455930624       -1.5656061731
 C         -2.7402309195       -3.6705265457       -1.2552410508
 C         -2.6887054657       -4.7139460477       -2.1600552598
 C         -2.0495344123       -4.5534635956       -3.3775474076
 C         -1.4591375266       -3.3386915319       -3.6839426964
 C         -1.5127202927       -2.2884256068       -2.7882180683
 C         -3.3733163881       -1.2385553608        0.1446028853
 C         -4.6366332798       -1.4402707433       -0.4096056720
 C         -5.7658315227       -1.2977493583        0.3708606046
 C         -5.6568245605       -0.9424713432        1.7060930270
 C         -4.4040860173       -0.7546442616        2.2640107712
 C         -3.2672403552       -0.9156027654        1.4950989735
 C         -1.1073770961        0.7010303503        0.1424467863
 N         -2.2490661343        1.4824706763        0.1531967638
 C         -3.1848007759        1.4055397727       -0.8872827003
 C         -2.7893010639        1.0744393734       -2.1808116797
 C         -3.7268680043        0.9710580936       -3.1906990007
 C         -5.0627848081        1.2243713985       -2.9318858822
 C         -5.4562014374        1.5866169171       -1.6532204090
 C         -4.5295969881        1.6723521228       -0.6341133413
 C         -2.3304403258        2.5561263785        1.0638210446
 C         -2.7695259724        3.8064571820        0.6386014455
 C         -2.8733983499        4.8498836701        1.5388488740
 C         -2.5331916459        4.6639626333        2.8678585208
 C         -2.0850422960        3.4236675112        3.2908346311
 C         -1.9855082555        2.3735072555        2.3989099615
 N         -0.0160164601        1.2394732850        0.6226645565
 C          1.1536557948        0.5759968532        0.5008912040
 C          2.3366780364        1.1145967786        1.0237149147
 C          3.5487934944        0.5037725697        0.7914897344
 C          4.7747661025        1.1202999530        1.3288224748
 C          4.8441135302        1.4655858155        2.6755979927
 C          5.9890677859        2.0398583085        3.1959817057
 C          7.0763863005        2.2876579714        2.3754397733
 C          7.0095786222        1.9642615088        1.0303265467
 C          5.8686347172        1.3838967955        0.5091061015
 C          5.7605799730       -1.6766878018        0.8013943560
 C          6.9584505981       -2.3152017801        0.5414364884
 H          8.2440758238       -3.1416838262       -0.9592366066
 H          6.7000996655       -2.6153816547       -2.8111077727
 H          4.5637762312       -1.4800776426       -2.3495239071
 H          2.4668020794       -2.1615440363       -1.0370226224
 H         -3.2292999164       -3.8032309520       -0.3012807673
 H         -3.1433124958       -5.6605332408       -1.9070245885
 H         -2.0076213141       -5.3712257331       -4.0811320462
 H         -0.9566609874       -3.2060538078       -4.6307620331
 H         -1.0489979020       -1.3460216604       -3.0323972813
 H         -4.7210726362       -1.6957910994       -1.4551117829
 H         -6.7392403072       -1.4529014378       -0.0697864483
 H         -6.5432184375       -0.8199344217        2.3097467638
 H         -4.3083415434       -0.4922780076        3.3073013523
 H         -2.2898025453       -0.8062154391        1.9418580003
 H         -1.7424375427        0.9136468014       -2.3934694375
 H         -3.4084758576        0.7026756685       -4.1872202619
 H         -5.7925863049        1.1473448953       -3.7234319010
 H         -6.4955003543        1.7923369985       -1.4449975260
 H         -4.8376981415        1.9337873207        0.3669846713
 H         -3.0242811610        3.9587138449       -0.4000212467
 H         -3.2139352228        5.8160340611        1.1963908171
 H         -2.6123776884        5.4815313085        3.5684827467
 H         -1.8155735323        3.2709625317        4.3255702408
 H         -1.6338239753        1.4111100926        2.7348930213
 H          2.2785280084        2.0389503751        1.5781071144
 H          3.9990055029        1.2618966408        3.3177943978
 H          6.0342246192        2.2928317233        4.2454951499
 H          7.9719107520        2.7339493188        2.7823300799
 H          7.8515429188        2.1649752483        0.3839544968
 H          5.8176335326        1.1423021345       -0.5423687794
 H          5.4913055123       -1.4263820851        1.8169207459
 H          7.6263404552       -2.5532442533        1.3564374221
