  80
       -122.24811480
 C          7.2288162562       -2.9376156540        0.1437078798
 C          6.2674012430       -3.2334540245       -0.8076499403
 C          5.0910405275       -2.5084672845       -0.8547497795
 C          4.8639034465       -1.4695907440        0.0435449698
 C          3.6025459970       -0.7096993944       -0.0035608875
 C          2.4094748964       -1.3957009346       -0.0382403713
 C          1.1887656078       -0.7072674625       -0.0322388282
 N          0.0239217467       -1.3766607925       -0.1595236693
 C         -1.1029330189       -0.7112051884       -0.1330622287
 N         -2.2551215255       -1.4352129473       -0.3855083913
 C         -2.2440356324       -2.8256388100       -0.1488182416
 C         -1.7285514113       -3.3309221002        1.0403031042
 C         -1.7369477483       -4.6917710036        1.2774989373
 C         -2.2617992864       -5.5644335516        0.3387514984
 C         -2.7710246039       -5.0650606516       -0.8478477014
 C         -2.7600680895       -3.7054179929       -1.0956205899
 C         -3.3157185963       -0.8797324191       -1.1126710332
 C         -4.6214371056       -1.3073493682       -0.8756959251
 C         -5.6699546994       -0.7533186601       -1.5813685212
 C         -5.4380075446        0.2381188813       -2.5217037238
 C         -4.1419589199        0.6559942745       -2.7699702118
 C         -3.0840062095        0.0924567196       -2.0825165459
 C         -1.1037443047        0.7101351853        0.1423674470
 N         -2.2580719441        1.4346655866        0.3851342384
 C         -2.2411899297        2.8249835224        0.1469798150
 C         -1.7148257852        3.3262166889       -1.0391428324
 C         -1.7124920960        4.6868771548       -1.2772012521
 C         -2.2389891530        5.5634010789       -0.3430432413
 C         -2.7612605097        5.0678981854        0.8394393325
 C         -2.7597822818        3.7084195292        1.0887713066
 C         -3.3224313815        0.8824613360        1.1089300171
 C         -3.0977531259       -0.0929390965        2.0772517229
 C         -4.1598053034       -0.6523093981        2.7618300630
 C         -5.4531724510       -0.2268480052        2.5128887916
 C         -5.6782961345        0.7672035509        1.5736322371
 C         -4.6258558272        1.3165243598        0.8702061392
 N          0.0227202592        1.3756040334        0.1773661745
 C          1.1885937117        0.7070997276        0.0545459466
 C          2.4090900040        1.3961740984        0.0603554196
 C          3.6024041773        0.7108335545        0.0202608585
 C          4.8645161356        1.4689184188       -0.0369101852
 C          5.1029009432        2.5084680524        0.8576603385
 C          6.2822408328        3.2281895765        0.8000775148
 C          7.2350925779        2.9267347937       -0.1583289508
 C          6.9996652805        1.9044196771       -1.0627342203
 C          5.8245483867        1.1795994849       -1.0034510911
 C          5.8328603238       -1.1852313291        1.0023640441
 C          7.0051444888       -1.9153731898        1.0511000942
 H          8.1478693136       -3.5038815584        0.1800967385
 H          6.4351937287       -4.0316816662       -1.5163349835
 H          4.3458462655       -2.7324043947       -1.6047319980
 H          2.3888263560       -2.4747204364       -0.0592312406
 H         -1.3166410325       -2.6578499818        1.7753183146
 H         -1.3349925882       -5.0731719140        2.2046165963
 H         -2.2701621419       -6.6271319055        0.5291936254
 H         -3.1736396565       -5.7381401908       -1.5907357784
 H         -3.1466312219       -3.3205465057       -2.0279977872
 H         -4.8030906987       -2.0642294357       -0.1276147224
 H         -6.6774118130       -1.0896980534       -1.3872530939
 H         -6.2624005564        0.6769531815       -3.0629015377
 H         -3.9496678034        1.4176396296       -3.5111767072
 H         -2.0704786727        0.3932598049       -2.3042351058
 H         -1.3010454321        2.6500617842       -1.7704177188
 H         -1.3007632138        5.0651066131       -2.2013342424
 H         -2.2382009123        6.6260618794       -0.5337017378
 H         -3.1659367842        5.7438448026        1.5784798103
 H         -3.1572016458        3.3267159719        2.0178598651
 H         -2.0863662088       -0.3993667707        2.3009551136
 H         -3.9724474833       -1.4161101879        3.5021253846
 H         -6.2806501718       -0.6616178186        3.0526552075
 H         -6.6837343418        1.1090233642        1.3783148313
 H         -4.8027783607        2.0749049410        0.1225015081
 H          2.3879618839        2.4751410249        0.0813055972
 H          4.3643186460        2.7375924974        1.6126736470
 H          6.4588542954        4.0272227986        1.5056583299
 H          8.1566427653        3.4883428956       -0.2024455754
 H          7.7352872768        1.6710111612       -1.8186866952
 H          5.6407180911        0.3905290795       -1.7177795475
 H          5.6586756538       -0.3955123513        1.7183343715
 H          7.7479254455       -1.6862864422        1.8012696349
  80
       -122.24792896
 C          7.3087877407       -2.5996628481       -0.8587618445
 C          7.1209610816       -1.2603858138       -1.1573255743
 C          5.9222848161       -0.6421465021       -0.8571554057
 C          4.8903636266       -1.3566908078       -0.2533685870
 C          3.6036677216       -0.7042947054        0.0447710179
 C          2.4340551443       -1.3084814506       -0.3588202739
 C          1.1986955053       -0.6780415186       -0.1582450707
 N          0.0447976274       -1.3160171635       -0.4483321325
 C         -1.0905985255       -0.6859500719       -0.2870135726
 N         -2.2474474405       -1.4264538505       -0.4516286713
 C         -2.1968947139       -2.6092755273       -1.2176827540
 C         -1.5595254400       -2.6204411344       -2.4539920623
 C         -1.5294209134       -3.7773139166       -3.2082648648
 C         -2.1367655551       -4.9328960093       -2.7459766085
 C         -2.7687084280       -4.9259687627       -1.5142680090
 C         -2.7966483527       -3.7748724371       -0.7499765015
 C         -3.3805338235       -1.1782848969        0.3351454444
 C         -4.6522813195       -1.4272108081       -0.1789928603
 C         -5.7710154638       -1.1711420256        0.5874648912
 C         -5.6426671032       -0.6554874575        1.8675359336
 C         -4.3815458984       -0.4201917876        2.3872633455
 C         -3.2553148253       -0.6926120144        1.6342437191
 C         -1.0988236933        0.7193315507        0.0626768886
 N         -2.2332271138        1.5079368729       -0.0110952677
 C         -3.1858009668        1.3130228721       -1.0200233871
 C         -4.5219119388        1.6350347813       -0.7852736447
 C         -5.4657443555        1.4366155817       -1.7721841074
 C         -5.0987332860        0.9060457680       -2.9987886212
 C         -3.7716262240        0.5962748476       -3.2405978359
 C         -2.8165267635        0.8106027656       -2.2652062827
 C         -2.2885547820        2.6890138215        0.7580491580
 C         -2.7131891606        3.8831002344        0.1830533778
 C         -2.7900789270        5.0330190154        0.9458394613
 C         -2.4368946298        5.0098263546        2.2842545321
 C         -2.0031053160        3.8251440488        2.8556553646
 C         -1.9307146882        2.6696867799        2.1020193578
 N          0.0027347921        1.3044145278        0.4578044698
 C          1.1654743484        0.6204568750        0.4087526937
 C          2.3565760623        1.2043406402        0.8603552378
 C          3.5602097104        0.5551397083        0.7011237884
 C          4.7826704100        1.1610607826        1.2566140435
 C          5.6435968213        0.4119010349        2.0551427006
 C          6.7777913640        0.9875275811        2.5951782441
 C          7.0708811726        2.3181258183        2.3458360638
 C          6.2165550145        3.0734346248        1.5605108148
 C          5.0779672200        2.5013107136        1.0235223287
 C          5.0831972134       -2.7058365918        0.0292993618
 C          6.2856880300       -3.3206910145       -0.2670913758
 H          8.2480055525       -3.0802875893       -1.0898147187
 H          7.9123070916       -0.6948388612       -1.6272969615
 H          5.7765596516        0.3996700271       -1.1022024541
 H          2.4451990578       -2.2706617545       -0.8479296738
 H         -1.0825116726       -1.7251126116       -2.8195928824
 H         -1.0321291703       -3.7749455437       -4.1670365603
 H         -2.1135972416       -5.8342625323       -3.3397378178
 H         -3.2364786908       -5.8246865829       -1.1397995221
 H         -3.2799837542       -3.7768038017        0.2160148364
 H         -4.7512825829       -1.8088605428       -1.1839965174
 H         -6.7511646801       -1.3640637835        0.1778179929
 H         -6.5207493314       -0.4455502755        2.4591259131
 H         -4.2710179644       -0.0329769510        3.3894134735
 H         -2.2715642048       -0.5439514303        2.0552121797
 H         -4.8098807236        2.0285637963        0.1779408970
 H         -6.4978561806        1.6877712191       -1.5784476825
 H         -5.8420818709        0.7421755226       -3.7640812984
 H         -3.4735680249        0.1956096969       -4.1982839226
 H         -1.7763104069        0.6031305385       -2.4697835106
 H         -2.9778201880        3.9077343661       -0.8639654975
 H         -3.1194162635        5.9541274665        0.4878728323
 H         -2.4943058444        5.9103166788        2.8769879829
 H         -1.7230811994        3.7991010340        3.8984780887
 H         -1.5900531885        1.7513620007        2.5530295891
 H          2.3036262221        2.1672557045        1.3452356952
 H          5.4130887988       -0.6228482148        2.2620203476
 H          7.4359166945        0.3954985071        3.2144153598
 H          7.9606229307        2.7652091432        2.7643412037
 H          6.4388417229        4.1126745705        1.3650327386
 H          4.4177493459        3.0893033534        0.4019143332
 H          4.2895524000       -3.2671976108        0.5014204015
 H          6.4258663891       -4.3665659034       -0.0344370865
  80
       -122.24778920
 C          7.2757505413       -2.7379508684       -0.7134997972
 C          6.3822017390       -2.5319552541       -1.7508321280
 C          5.1888967949       -1.8736726573       -1.5179314286
 C          4.8774598244       -1.4018354094       -0.2458331472
 C          3.6035558894       -0.6974338380       -0.0160139496
 C          2.4301530095       -1.2863740266       -0.4313358412
 C          1.1972197657       -0.6617077063       -0.2019048262
 N          0.0413304255       -1.2932413495       -0.4987444979
 C         -1.0935874743       -0.6749533233       -0.2951581726
 N         -2.2496626685       -1.4142504562       -0.4706172089
 C         -2.2032902102       -2.5657049153       -1.2836531565
 C         -2.7802194920       -3.7556639404       -0.8500756750
 C         -2.7551502548       -4.8755930340       -1.6595188422
 C         -2.1487497249       -4.8267362929       -2.9030914373
 C         -1.5644775466       -3.6465769531       -3.3320059706
 C         -1.5918352926       -2.5206276332       -2.5321672880
 C         -3.3705847180       -1.2061708169        0.3442432998
 C         -4.6487835213       -1.4508737480       -0.1558907664
 C         -5.7562348207       -1.2346515082        0.6386708665
 C         -5.6105533392       -0.7625705240        1.9336098836
 C         -4.3428558969       -0.5313252528        2.4389552099
 C         -3.2274840221       -0.7649175511        1.6573342845
 C         -1.1017679212        0.7157089361        0.1090267788
 N         -2.2412323522        1.4999513326        0.0806881290
 C         -3.2048462322        1.3348951029       -0.9234632192
 C         -2.8450335506        0.8884166170       -2.1925008518
 C         -3.8097050191        0.6997421455       -3.1637900773
 C         -5.1376584764        0.9808442077       -2.8929639094
 C         -5.4957294034        1.4570140374       -1.6415521639
 C         -4.5418019162        1.6289794679       -0.6592203532
 C         -2.2959239586        2.6506424362        0.8940230655
 C         -2.7438944879        3.8601183466        0.3711220636
 C         -2.8214146933        4.9798752959        1.1774152680
 C         -2.4458364517        4.9113496138        2.5081365348
 C         -1.9888465856        3.7116308748        3.0276688525
 C         -1.9154516509        2.5859254600        2.2303773708
 N          0.0031948666        1.2899716584        0.5101221565
 C          1.1678658183        0.6132353070        0.4166748789
 C          2.3656064915        1.1910443356        0.8577305925
 C          3.5698273069        0.5567496427        0.6484912503
 C          4.8110453470        1.2132804918        1.0959131376
 C          4.9173738455        1.6766068512        2.4042932900
 C          6.0770638729        2.2898949774        2.8407621519
 C          7.1423271503        2.4590643619        1.9726889078
 C          7.0386248090        2.0176773026        0.6639485139
 C          5.8829092645        1.3982293763        0.2270814929
 C          5.7768393197       -1.6237628104        0.7932958680
 C          6.9660185350       -2.2880407614        0.5592876938
 H          8.2090806792       -3.2502048184       -0.8956904382
 H          6.6167272633       -2.8839081149       -2.7451553590
 H          4.4958428276       -1.7028228756       -2.3295358830
 H          2.4337247425       -2.2558345227       -0.9060880326
 H         -3.2436291060       -3.8009278469        0.1246252403
 H         -3.2046014931       -5.7939634051       -1.3112246672
 H         -2.1274221074       -5.7039750003       -3.5319955221
 H         -1.0874727618       -3.6008028226       -4.2999488713
 H         -1.1330413351       -1.6056766282       -2.8715194722
 H         -4.7618958879       -1.7979464031       -1.1718877397
 H         -6.7414773087       -1.4241379378        0.2397237679
 H         -6.4800983415       -0.5830219102        2.5474185025
 H         -4.2184890367       -0.1776797809        3.4518352899
 H         -2.2381379122       -0.6204884755        2.0663311113
 H         -1.8046027406        0.7048233097       -2.4178850400
 H         -3.5188366311        0.3424670605       -4.1406254799
 H         -5.8886984848        0.8369274001       -3.6547481735
 H         -6.5286308246        1.6849296129       -1.4247829220
 H         -4.8222730798        1.9796971124        0.3225153416
 H         -3.0262831370        3.9205546115       -0.6697542514
 H         -3.1691911954        5.9132277527        0.7595706121
 H         -2.5045036227        5.7882939920        3.1351054292
 H         -1.6918554898        3.6503388048        4.0643219182
 H         -1.5566992318        1.6556874928        2.6411434534
 H          2.3242295469        2.1612606488        1.3290372467
 H          4.0895062547        1.5344707921        3.0844003942
 H          6.1510112652        2.6349572127        3.8620246033
 H          8.0493681555        2.9358718429        2.3142016784
 H          7.8632313845        2.1564921934       -0.0199675122
 H          5.8030888261        1.0643517249       -0.7969902515
 H          5.5355483187       -1.2830162322        1.7893510662
 H          7.6551908133       -2.4555897153        1.3741106936
  80
       -122.24750308
 C          7.1630034997       -2.9687515871        0.4963599196
 C          6.2668096321       -3.3002894494       -0.5056264303
 C          5.1089015897       -2.5634844546       -0.6740126795
 C          4.8366346365       -1.4766143824        0.1516260874
 C          3.5900819913       -0.7076077042       -0.0078838509
 C          2.3928587755       -1.3831327036       -0.0731851068
 C          1.1805598800       -0.6820665321       -0.1241093673
 N          0.0127000789       -1.3435562019       -0.2530189740
 C         -1.1128900622       -0.6737546225       -0.2219223395
 N         -2.2622266226       -1.4019600861       -0.4534977361
 C         -2.2015060733       -2.8076707535       -0.3163847041
 C         -2.7039279266       -3.6269180412       -1.3220176543
 C         -2.6542515916       -5.0016678889       -1.1866486669
 C         -2.0976182553       -5.5723728606       -0.0548732946
 C         -1.5948470879       -4.7576119550        0.9461404501
 C         -1.6485897433       -3.3826575144        0.8222792927
 C         -3.4026903721       -0.8484929597       -1.0500270244
 C         -3.3018895090        0.1701287757       -1.9935469690
 C         -4.4428810324        0.7200667335       -2.5465964803
 C         -5.6923214306        0.2417366298       -2.1912363217
 C         -5.7949859649       -0.7986251651       -1.2812115680
 C         -4.6622145802       -1.3400490431       -0.7089485702
 C         -1.0993706170        0.7471978265        0.0557860319
 N         -2.2461136950        1.4683615864        0.3567559014
 C         -2.2714970742        2.8474907066        0.0733314375
 C         -1.7826722995        3.3207598331       -1.1409861964
 C         -1.8280061596        4.6701114819       -1.4317731167
 C         -2.3640007050        5.5663463228       -0.5223005745
 C         -2.8431891075        5.1010480466        0.6902413260
 C         -2.7937820422        3.7532376379        0.9923732738
 C         -3.2379681476        0.9023415340        1.1670723281
 C         -2.9121297925       -0.0710318947        2.1096809676
 C         -3.8999362171       -0.6585125251        2.8762522556
 C         -5.2193664785       -0.2640826825        2.7372737445
 C         -5.5438676775        0.7281214384        1.8258655179
 C         -4.5668699146        1.3055646612        1.0406192009
 N          0.0290837168        1.4085392086        0.0587975853
 C          1.1915156423        0.7337791613       -0.0655903735
 C          2.4185544023        1.4118694252       -0.0593225071
 C          3.6047325277        0.7131436428       -0.0386251689
 C          4.8813230022        1.4473359249       -0.0760107083
 C          5.1049751599        2.5217817274        0.7801248817
 C          6.3050247492        3.2079893039        0.7469906732
 C          7.2941555539        2.8373966157       -0.1481305489
 C          7.0735716353        1.7811439825       -1.0164741477
 C          5.8774402566        1.0903964308       -0.9817169736
 C          5.7402484655       -1.1556192793        1.1616316649
 C          6.8933721200       -1.8975894964        1.3319229557
 H          8.0669764474       -3.5450162754        0.6280494320
 H          6.4709183995       -4.1367571155       -1.1584297693
 H          4.4139667505       -2.8175847075       -1.4617423995
 H          2.3603435397       -2.4619753323       -0.0595270956
 H         -3.1277848705       -3.1824604867       -2.2108182500
 H         -3.0434555033       -5.6288145389       -1.9751881048
 H         -2.0533891010       -6.6464235589        0.0457143860
 H         -1.1610423304       -5.1963041221        1.8326222392
 H         -1.2556362250       -2.7520077097        1.6038965855
 H         -2.3271213585        0.5186954399       -2.3005703665
 H         -4.3525570692        1.5195804927       -3.2670888862
 H         -6.5816405936        0.6712112512       -2.6269539119
 H         -6.7655586292       -1.1831943491       -1.0056573863
 H         -4.7403464418       -2.1363977513        0.0158171388
 H         -1.3585417748        2.6324150660       -1.8548995203
 H         -1.4469972656        5.0232347791       -2.3787481169
 H         -2.4022004748        6.6199339323       -0.7546291544
 H         -3.2499939779        5.7929711327        1.4130125075
 H         -3.1534672761        3.3992537155        1.9473510709
 H         -1.8790554765       -0.3552306947        2.2489550204
 H         -3.6333841738       -1.4193056596        3.5951586800
 H         -5.9886585927       -0.7211135208        3.3408650859
 H         -6.5698007641        1.0463654333        1.7157686443
 H         -4.8257406016        2.0592058440        0.3124725696
 H          2.4089119839        2.4912043033       -0.0706981855
 H          4.3389514759        2.8035571996        1.4884949090
 H          6.4705875975        4.0334610458        1.4242680750
 H          8.2326595439        3.3715067179       -0.1712723064
 H          7.8377674064        1.4937736749       -1.7239358506
 H          5.7059505771        0.2738643324       -1.6676549153
 H          5.5281496973       -0.3283958990        1.8230118110
 H          7.5845715056       -1.6396648491        2.1211049112
