66
 energy: -99.299934147004 gnorm: 0.000101427823 xtb: 6.7.1 (edcfbbe)
C           -9.60454921497385       -2.42633153253563        1.23946232399929
C           -9.32292472417372       -1.57518912134659       -0.00900326931065
C           -9.60735221791468       -2.40247117665525       -1.27279669442226
C          -10.27751056392097       -0.37824711473422        0.00356438242511
C           -7.86486162112208       -1.16571038468493       -0.00715042620185
C           -6.86750129125582       -2.15889475268154       -0.01580834979859
C           -5.53662773852799       -1.84861146797715       -0.01484909874830
C           -5.12071506516170       -0.49313433959450       -0.00505714217267
C           -3.76008173875783       -0.17366222643297       -0.00422746388032
N           -2.73064281893785       -1.04215624491821       -0.01193420331278
N           -1.63238781306071       -0.38460446458577       -0.00843928480967
C           -1.92130180732722        0.93983117759941        0.00170867116872
C           -1.00899853693573        1.99130912564925        0.00791453496690
C           -1.44763639042359        3.35470593168267        0.01841803222963
C           -0.52745509402642        4.37233008907008        0.02295131812097
C            0.83674502921080        4.10356134033809        0.01750807884837
C            1.28280848237695        2.75610262708885        0.00771836278491
C            2.69767342463881        2.49880900151466        0.00241463738346
N            3.65661721570443        3.38630098555877       -0.00123124916408
N            4.81317675936364        2.72606005742520       -0.00573922982867
C            4.53673054392796        1.45019298795634       -0.00450684104273
C            5.47682962012394        0.36020686621320       -0.00614116990068
C            5.04266301992411       -0.96326314611077        0.00263866971336
C            5.96012690146663       -1.99581955057856        0.00337871821641
C            7.32953733702582       -1.74753420557723       -0.00481244036759
C            8.36870943679068       -2.85577739594579       -0.00292146199808
C            7.74425699683714       -4.25363203878754        0.01231374234341
C            9.23265323046782       -2.73045823494618       -1.26618108167211
C            9.24907017988799       -2.71086374436450        1.24687639492957
C            7.74822329521160       -0.41506125216789       -0.01487035777521
C            6.84700823408926        0.62594355322553       -0.01535480724279
O            3.19907895272906        1.24009804705264        0.00050606150250
C            0.37849617555256        1.71999018196751        0.00322752380431
O           -3.28814959226695        1.12156576900575        0.00490378373041
C           -6.11896788461644        0.51138830084305        0.00352727280069
C           -7.44708984167140        0.17248018144578        0.00240676045256
H           -8.99987949072107       -3.32852601882050        1.25165753976926
H           -9.38591781457665       -1.85639882858272        2.13998705875623
H          -10.65223064644129       -2.71795970589005        1.26082007053790
H           -9.39159721190931       -1.81520485853881       -2.16282459819892
H           -9.00185952181940       -3.30367887941451       -1.30384418962788
H          -10.65485290709804       -2.69452972818540       -1.29690683009235
H          -10.13544052298630        0.22764111071000        0.89541404347644
H          -11.30503948031016       -0.73584668108053        0.00236071442478
H          -10.13898288771986        0.24357383148032       -0.87780859889883
H           -7.15417863874879       -3.19938312319609       -0.02359576212209
H           -4.77781561429455       -2.61453004504846       -0.02153983498821
H           -2.50745781250119        3.55385973597324        0.02243402103737
H           -0.86377662539814        5.39857336705678        0.03081133475828
H            1.57234049130021        4.88971651627349        0.02071314258548
H            3.98443804393445       -1.17807398441215        0.00940025532574
H            5.58640719802559       -3.00639273071285        0.01082597684002
H            8.53416534733761       -5.00186553859173        0.01404268508446
H            7.13962863528372       -4.40349433493847        0.90371672609648
H            7.12949384542165       -4.41844603467230       -0.86945042803092
H            9.75532084666902       -1.77878005224840       -1.29812037745813
H            8.61145158568385       -2.80854593071973       -2.15595722611317
H            9.97329957421599       -3.52676935299725       -1.29141231398373
H            9.77399197276450       -1.75995187654498        1.25606443228461
H            8.63920920784211       -2.77259677587151        2.14574215779451
H            9.98851793225555       -3.50814734244735        1.27612930618943
H            8.80192823086306       -0.18212458061949       -0.02226229432415
H            7.17618673508172        1.65280320006883       -0.02263030420316
H            0.70212146606436        0.69121321966445       -0.00442761284469
H           -5.81404361290326        1.54663572025085        0.01093734458445
H           -8.17626476680439        0.96608497920437        0.00919107993660
