66
 energy: -99.393634556100 gnorm: 0.000030648873 xtb: 6.7.1 (edcfbbe)
C           -9.39379048041467       -2.79466574636922        0.00047711322132
C           -9.12509172115796       -1.28753666594353       -0.00103765050090
C           -9.76943537915940       -0.68738044732422       -1.25903287879348
C           -9.77172912432015       -0.68447017776810        1.25438374980704
C           -7.64222837409368       -0.95538967300404       -0.00012823471126
C           -6.64782616501611       -1.93008736539210        0.00155140991041
C           -5.30925085356901       -1.59154965693777        0.00221797389053
C           -4.92558571531066       -0.25275897880165        0.00123605624518
C           -3.52563706695311        0.09157454414340        0.00182480232234
N           -2.51548350062867       -0.73100788028572        0.00279680157789
N           -1.40001465027230        0.00679552223866        0.00287381090839
C           -1.76068513953829        1.25722955824675        0.00196698409830
C           -0.89224301090469        2.41163080811318        0.00164502591899
C           -1.41984285657636        3.70244936831205        0.00140397959714
C           -0.56992713443469        4.79509748973336        0.00107483329677
C            0.80005500788073        4.61565964406555        0.00093395705321
C            1.33120016957332        3.32366235337088        0.00114622910359
C            2.76538698737110        3.14796036652671        0.00085851055514
N            3.66983926363587        4.08409760618979        0.00048491727990
N            4.86511005571127        3.48409264239754        0.00020166321619
C            4.65361389972576        2.19789216084881        0.00041021874296
C            5.64705874119635        1.15303611336587        0.00016551324036
C            5.27456006243937       -0.19001343469383        0.00054997438552
C            6.24190835743182       -1.17204471326764        0.00024590686530
C            7.60131671695448       -0.85971005908978       -0.00046085266377
C            8.62364949671454       -1.98407852567363       -0.00079294417477
C           10.06644360735576       -1.47207839572595       -0.00173352843070
C            8.42076685524766       -2.84238559151750        1.25618026584495
C            8.41935302708969       -2.84296718092152       -1.25714029586364
C            7.95667971774853        0.48662627629520       -0.00081639458365
C            7.00015381902865        1.48242563639511       -0.00050722886936
O            3.32946938059579        1.91833047729688        0.00084164386625
C            0.48649400153446        2.22049114316552        0.00153417952481
O           -3.10930463462960        1.38067150058010        0.00126908480118
C           -5.90886781257865        0.73476490929496       -0.00040663080515
C           -7.24098030379106        0.38043184139236       -0.00108303552800
H           -8.97690385756538       -3.26823087740777       -0.88521684972571
H           -8.97832158615392       -3.26618460278889        0.88792824976015
H          -10.46765160611204       -2.96974359203481       -0.00018589267444
H          -10.82908486571757       -0.93138313786013       -1.28766422199266
H           -9.66953256275747        0.39414214748073       -1.28070548743545
H           -9.29791413214628       -1.09168498291594       -2.15230495020197
H           -9.30176363881413       -1.08661347134593        2.14944891614278
H          -10.83140317690611       -0.92851742213739        1.28170018479631
H           -9.67199490344004        0.39711133156470        1.27368399704502
H           -6.90747801770073       -2.97565932057726        0.00235232910128
H           -4.54273482876820       -2.35008308543817        0.00348869167636
H           -2.49062255420729        3.83985813808388        0.00149243597176
H           -0.98141646458813        5.79309228436429        0.00091043950725
H            1.47898106748602        5.45316806980118        0.00064372913111
H            4.22794619208286       -0.45574550732811        0.00108428756982
H            5.92445479582560       -2.20361615689447        0.00056303174932
H           10.74989935706585       -2.31872022668444       -0.00197931305252
H           10.27066979663550       -0.87671549667213       -0.88851540912634
H           10.27171807898986       -0.87639037297875        0.88458722297588
H            9.15673681344352       -3.64295042307273        1.28382131651485
H            7.43121261763144       -3.28996647633664        1.27732763560327
H            8.53914459728237       -2.23363957604565        2.15014282963769
H            7.42981224785276       -3.29063799035267       -1.27693046289802
H            8.53664044164748       -2.23461745518026       -2.15151617463969
H            9.15534902151197       -3.64349067477715       -1.28528137593804
H            8.99381514788251        0.77829489169144       -0.00135041220329
H            7.28017780701828        2.52386625148563       -0.00079234001863
H            0.87785524138766        1.21571179940845        0.00172106879666
H           -5.62211036876293        1.77597090844494       -0.00118407563924
H           -7.98061890398866        1.16657955726241       -0.00240433077198
