  66
        -99.29615361
 C         -9.6094256289       -2.4564739933        1.2148470667
 C         -9.3227041725       -1.5725862523       -0.0094933635
 C         -9.6050926948       -2.3659948398       -1.2955953792
 C        -10.2755066210       -0.3749775660        0.0338127700
 C         -7.8645613709       -1.1658031697        0.0018379024
 C         -6.8682919303       -2.1606267869       -0.0053079193
 C         -5.5371815515       -1.8523661094       -0.0002953653
 C         -5.1189112549       -0.4969685647        0.0091415190
 C         -3.7579863763       -0.1792711193        0.0100454351
 N         -2.7295305745       -1.0472364221        0.0085642824
 N         -1.6301805717       -0.3867294415        0.0088639540
 C         -1.9200757459        0.9331639108        0.0097656286
 C         -1.0073535328        1.9887593914        0.0070038824
 C         -1.4485849889        3.3496993572        0.0031817759
 C         -0.5295120751        4.3692980080       -0.0028780762
 C          0.8343048649        4.1028900129       -0.0046859421
 C          1.2823501387        2.7574466760        0.0003272319
 C          2.6959506546        2.4990780361       -0.0018047753
 N          3.6572093069        3.3856944248       -0.0120332466
 N          4.8113889520        2.7261031668       -0.0120645565
 C          4.5360035238        1.4492428787       -0.0015608244
 C          5.4758533035        0.3604093804        0.0014060154
 C          5.0422565223       -0.9636019598        0.0226355057
 C          5.9600332531       -1.9956142656        0.0232372503
 C          7.3294008692       -1.7469883517        0.0021982060
 C          8.3689516113       -2.8546286548       -0.0018121224
 C          7.7455180189       -4.2524558471        0.0323643754
 C          9.2140371664       -2.7371802686       -1.2784253395
 C          9.2675723454       -2.7007539324        1.2336846468
 C          7.7475972390       -0.4142240359       -0.0183717628
 C          6.8463193910        0.6263726093       -0.0184431444
 O          3.1976987862        1.2400414060        0.0056106046
 C          0.3777281162        1.7192575766        0.0061376462
 O         -3.2850930261        1.1154643743        0.0113762578
 C         -6.1163893508        0.5093184815        0.0147981955
 C         -7.4446090059        0.1722175448        0.0116609397
 H         -9.0157018096       -3.3657616264        1.1992128020
 H         -9.3818221576       -1.9152077481        2.1306310985
 H        -10.6603030454       -2.7369758853        1.2311585393
 H         -9.3914338498       -1.7537286196       -2.1691948226
 H         -8.9952934521       -3.2633241867       -1.3509410798
 H        -10.6515819857       -2.6610954622       -1.3274776774
 H        -10.1256514070        0.2122588818        0.9368194325
 H        -11.3035457154       -0.7310987013        0.0325566924
 H        -10.1428556758        0.2646554801       -0.8355699532
 H         -7.1565085483       -3.2006117743       -0.0146825773
 H         -4.7792812558       -2.6191109449       -0.0045437740
 H         -2.5085505710        3.5475942696        0.0043211699
 H         -0.8678263780        5.3948422392       -0.0066542768
 H          1.5681743495        4.8906087070       -0.0097272907
 H          3.9843076782       -1.1782698236        0.0385933360
 H          5.5870269631       -3.0061697977        0.0399118009
 H          8.5359255439       -5.0002041204        0.0302693443
 H          7.1522525167       -4.3953244716        0.9323110768
 H          7.1201023430       -4.4248031873       -0.8402152070
 H          9.7326343964       -1.7841685830       -1.3255513288
 H          8.5803293576       -2.8246982197       -2.1581616143
 H          9.9570210848       -3.5311418638       -1.3078842967
 H          9.7930734238       -1.7502094555        1.2282509203
 H          8.6711869639       -2.7556198295        2.1419305824
 H         10.0070818235       -3.4981613425        1.2577064645
 H          8.8011998903       -0.1812473659       -0.0352212182
 H          7.1752704926        1.6532487804       -0.0347078624
 H          0.7034107685        0.6910669763        0.0092986559
 H         -5.8100371671        1.5441214826        0.0214391855
 H         -8.1727855556        0.9668108871        0.0161729247
