  66
        -99.39361091
 C         -9.6547557227       -2.3466489529        1.2688671112
 C         -9.3646639589       -1.4879460653        0.0294216348
 C         -9.6970688691       -2.2801109526       -1.2431526373
 C        -10.2746567115       -0.2575111581        0.0779669976
 C         -7.8885842584       -1.1271425728        0.0131246560
 C         -6.9339869589       -2.1454261826       -0.0176993244
 C         -5.5841179493       -1.8713451231       -0.0310303329
 C         -5.1427268552       -0.5484089398       -0.0146105835
 C         -3.7288116126       -0.2666579593       -0.0242586153
 N         -2.7569154956       -1.1340256368       -0.0299337151
 N         -1.6091745839       -0.4476237821       -0.0332219153
 C         -1.9128624511        0.8179667493       -0.0299497149
 C         -0.9915236670        1.9306988448       -0.0293560157
 C         -1.4582714925        3.2446679526       -0.0398296397
 C         -0.5582892582        4.2965625573       -0.0357538004
 C          0.8016964729        4.0533005723       -0.0203414219
 C          1.2720863749        2.7379100406       -0.0108163256
 C          2.6969085558        2.4977814507        0.0071965540
 N          3.6404204416        3.3939985783        0.0400266504
 N          4.8087327356        2.7432833519        0.0488803009
 C          4.5426854013        1.4676142990        0.0211307317
 C          5.4919579002        0.3825002037        0.0164012661
 C          5.0683579640       -0.9418241065       -0.0489914428
 C          5.9935293883       -1.9681844970       -0.0554387114
 C          7.3596452329       -1.7110479352        0.0039732515
 C          8.4075084624       -2.8118656006       -0.0028911133
 C          9.3268483642       -2.6175720771       -1.2177143872
 C          9.2290793802       -2.7255066223        1.2918325652
 C          7.7941100836       -4.2126339049       -0.0868472266
 C          7.7673193251       -0.3772629945        0.0712660624
 C          6.8580972878        0.6574368853        0.0768272473
 O          3.2076411502        1.2451642652       -0.0061072011
 C          0.3768750981        1.6753118720       -0.0159417333
 O         -3.2543004908        1.0024779520       -0.0243833347
 C         -6.0814576177        0.4784960926        0.0135835611
 C         -7.4321316287        0.1869445954        0.0272246149
 H         -9.0883198478       -3.2735794214        1.2529141042
 H         -9.3927742792       -1.8020075974        2.1738381158
 H        -10.7130303181       -2.5954365803        1.3099563231
 H        -10.7533883624       -2.5396558438       -1.2552712806
 H         -9.4781384389       -1.6828673481       -2.1259740447
 H         -9.1200188934       -3.1986011019       -1.3018105997
 H        -10.0930762183        0.3291570794        0.9755620428
 H        -11.3143059890       -0.5780804302        0.0922705003
 H        -10.1310022698        0.3721214362       -0.7971331885
 H         -7.2481219454       -3.1777819116       -0.0314210366
 H         -4.8514777148       -2.6622041687       -0.0541339194
 H         -2.5214703115        3.4317790205       -0.0514257915
 H         -0.9226563191        5.3126826301       -0.0443667519
 H          1.5190342109        4.8581533778       -0.0151362314
 H          4.0126272278       -1.1642207464       -0.0965888904
 H          5.6273447925       -2.9801935051       -0.1093077838
 H         10.0703449837       -3.4111104119       -1.2528817831
 H          8.7457577703       -2.6470987820       -2.1378312799
 H          9.8483936374       -1.6651413685       -1.1744740342
 H          8.5803857541       -2.8397668240        2.1582322166
 H          9.7426900293       -1.7714352700        1.3738781885
 H          9.9752906391       -3.5168543023        1.3132759904
 H          7.1519065524       -4.4122915860        0.7682402347
 H          7.2199089257       -4.3349819090       -1.0027111845
 H          8.5893755981       -4.9553739228       -0.0884845540
 H          8.8186938428       -0.1372984482        0.1191030940
 H          7.1793683933        1.6859984608        0.1265631823
 H          0.7206726534        0.6532964082       -0.0078966040
 H         -5.7498931310        1.5063250888        0.0261611266
 H         -8.1285581071        1.0089133389        0.0521856883
