66
 energy: -99.393664734111 gnorm: 0.000038163767 xtb: 6.7.1 (edcfbbe)
C           -9.64963553618491       -2.33544461089913        1.27505552249609
C           -9.35982109214055       -1.49164268139439        0.02535548812997
C           -9.68914993704715       -2.30046278393613       -1.23753666401026
C          -10.27222299566847       -0.26248430585334        0.05671835384376
C           -7.88443627702952       -1.12844308621947        0.00830221263417
C           -6.92832483305185       -2.14535815447223       -0.02225147412675
C           -5.57895386803535       -1.86935128152391       -0.03582705550024
C           -5.13961120835014       -0.54574831456696       -0.01894970640072
C           -3.72609978399862       -0.26230596209119       -0.02970603175832
N           -2.75388456380312       -1.12911284556643       -0.05260878350380
N           -1.60651207677053       -0.44214433229788       -0.05126995613512
C           -1.91061552122021        0.82301623817609       -0.02782649272367
C           -0.99016555499768        1.93634873864320       -0.01578508372511
C           -1.45742106695532        3.25010393890772       -0.00060231073270
C           -0.55769929839346        4.30208059503990        0.01208801371231
C            0.80246047180638        4.05929127060094        0.01073881366096
C            1.27325971106639        2.74412931145672       -0.00400059045140
C            2.69797288740818        2.50316982350177       -0.00151754282788
N            3.64315383564954        3.39801726405275        0.01504533850261
N            4.81046300602399        2.74546358955337        0.01501838812795
C            4.54209244741811        1.47002079420111       -0.00171572697180
C            5.48984198026894        0.38351728058646       -0.00534335108925
C            5.06378866222601       -0.94110452925224       -0.03334460184691
C            5.98768889122115       -1.96869368231974       -0.03343397518763
C            7.35473881699424       -1.71242716960975       -0.00513403816791
C            8.40079508056509       -2.81469605891324        0.00015826320906
C            9.30518971857670       -2.65148696178269       -1.22987884095417
C            9.23812632754771       -2.69811414232472        1.28198245476376
C            7.78510871727874       -4.21587877473550       -0.04286502518828
C            7.76498761980441       -0.37818558168458        0.02228697946998
C            6.85701746278344        0.65762686182277        0.02189855782077
O            3.20681881735081        1.24962720299629       -0.01332275470631
C            0.37830759934492        1.68146287234196       -0.01790672839842
O           -3.25236724267269        1.00676343560020       -0.01331575362455
C           -6.07978762806868        0.47975521861224        0.01024449103022
C           -7.43002274856794        0.18627830841612        0.02349981548798
H           -9.07716423890357       -3.25856958211784        1.27329063580253
H           -9.39422628133896       -1.77742379241939        2.17348201773908
H          -10.70637068083985       -2.59019153054154        1.31587613622772
H          -10.74674285664648       -2.55453548227314       -1.25190529867243
H           -9.46218604689791       -1.71751029484880       -2.12771557138525
H           -9.11741210543845       -3.22306352176311       -1.27967196876626
H          -10.09763228604310        0.33320878640503        0.94969257629306
H          -11.31140874555745       -0.58452704130171        0.06748421104406
H          -10.12385362795894        0.35890689877943       -0.82339985237901
H           -7.24115057490501       -3.17807821474293       -0.03533576543901
H           -4.84508020928407       -2.65904795584657       -0.05890511335209
H           -2.52067194890958        3.43706225838832        0.00115372219595
H           -0.92238666644868        5.31804921444216        0.02355595483746
H            1.51951472675701        4.86433319056235        0.02131527235641
H            4.00716533153420       -1.16311836512517       -0.05491579492805
H            5.61975915544538       -2.98118160665739       -0.05561732921613
H           10.05003219967648       -3.44399231468178       -1.25245473897820
H            8.71398129984433       -2.70745892271160       -2.14150187159837
H            9.82450650263337       -1.69752404005184       -1.21870534644424
H            8.59970520394518       -2.79168876541730        2.15801166806950
H            9.75198486982901       -1.74257578762576        1.33568935804601
H            9.98464263343161       -3.48874894141983        1.31297949905082
H            7.15613409455129       -4.39512720489266        0.82596557864764
H            7.19682573197028       -4.35810740319182       -0.94638898217386
H            8.57940213025353       -4.95947634815695       -0.03992780314324
H            8.81700856426325       -0.13860473963955        0.04503357247145
H            7.17965031984488        1.68635116338012        0.04324145575035
H            0.72256787793649        0.65964909342185       -0.02945677216034
H           -5.74951470398677        1.50799817327012        0.02318550790867
H           -8.12757839055376        1.00728208831091        0.04658092437188
