  85
        -99.14547371
 C         -0.5246189342        4.7577843820        1.3273268332
 C         -0.9599445770        3.4964976022        2.0888742214
 C          0.0629912555        3.1777454396        3.1856260319
 C         -1.1687708094        2.3299253187        1.1688611631
 C         -2.4453587068        1.8775311346        0.8593709736
 C         -2.6851057996        0.7918303115        0.0465387977
 C         -4.1089034271        0.4735129036       -0.3548052930
 C         -5.0459936605        0.3955187116        0.8571374570
 C         -4.6592159651        1.5153543778       -1.3387876526
 C         -1.5681967776        0.0232691637       -0.5091972393
 C         -1.7611588533       -1.3509892332       -0.7999023237
 C         -1.1000366819       -2.0684337199       -1.8290749570
 C         -1.3216763730       -3.4117496617       -2.0318272172
 C         -2.2034034696       -4.1252576602       -1.2313161630
 C         -2.8723203428       -3.4526492179       -0.2124519618
 C         -2.6673350982       -2.1126356806       -0.0054755288
 C         -0.2455424897        0.7378852250       -0.6387229601
 C         -0.1288281525        1.6370970571       -1.9097117957
 C         -1.2091673295        2.7122016606       -1.9772998326
 C         -0.1239303889        0.8599003997       -3.2206339146
 P          1.1616488325       -0.6015405982       -0.7027713833
 C          2.7461628340        0.4460074050       -0.8291513220
 C          3.5097737929        0.8494248766        0.4303006769
 C          4.6954993026        1.7380624853        0.0515949810
 C          5.6371601099        1.0053652092       -0.8982461947
 C          4.8869418038        0.5682714844       -2.1521493066
 C          3.6898024653       -0.3010147769       -1.7796325077
 C          1.3284281952       -1.2589810714        1.0630310920
 C          0.0284816556       -1.6974758042        1.7290124337
 C          0.3177198306       -2.2423950675        3.1263902093
 C          1.2554289620       -3.4423749128        3.0445074848
 C          2.5489982407       -3.0532624694        2.3368388355
 C          2.2499670857       -2.4782973251        0.9554740738
 C          0.0135698087        1.6337303786        0.5971166511
 H         -0.3919700753        5.5856960005        2.0205056682
 H         -1.2780399323        5.0408900103        0.5952940470
 H          0.4175666041        4.5922972234        0.8095781911
 H         -1.9181430846        3.7176113066        2.5735666784
 H          1.0581236823        3.0545100664        2.7649314190
 H          0.0992435529        3.9892685428        3.9092699539
 H         -0.2120253284        2.2636974064        3.7077634078
 H         -3.2832294200        2.4385251325        1.2493220231
 H         -4.1254465670       -0.4924837297       -0.8669436743
 H         -4.6242454127       -0.2257181337        1.6440024825
 H         -6.0010882700       -0.0316104390        0.5581885980
 H         -5.2336207580        1.3834799005        1.2701897680
 H         -5.7161082518        1.3292261884       -1.5196805006
 H         -4.1408566424        1.4565566984       -2.2932173937
 H         -4.5482183432        2.5218767077       -0.9413194515
 H         -0.4703614004       -1.5482232484       -2.5264277843
 H         -0.8062960284       -3.9140034825       -2.8386480053
 H         -2.3701419050       -5.1788416585       -1.3964644379
 H         -3.5493975297       -3.9941504933        0.4338337496
 H         -3.1365021746       -1.6361811976        0.8405049987
 H          0.8285444091        2.1660828923       -1.8423078803
 H         -1.0071267422        3.3735102792       -2.8187839522
 H         -2.1852253869        2.2624422091       -2.1185317663
 H         -1.2348653783        3.3089347673       -1.0712777186
 H          0.0405896899        1.5460953371       -4.0502547079
 H         -1.0775663585        0.3616558748       -3.3752424457
 H          0.6796625028        0.1245344215       -3.2304225848
 H          2.4515445468        1.3664103877       -1.3445067766
 H          3.8917362193       -0.0350311159        0.9432344496
 H          2.8650985099        1.3966512254        1.1209288898
 H          5.2341801502        2.0333405072        0.9553662139
 H          4.3309238685        2.6488527939       -0.4310531392
 H          6.4734448274        1.6537068057       -1.1686828129
 H          6.0454004454        0.1253866886       -0.3951941869
 H          4.5387473050        1.4522521684       -2.6927461935
 H          5.5560946497        0.0146600306       -2.8144316189
 H          3.1461485938       -0.5885990491       -2.6833994813
 H          4.0446213934       -1.2194879220       -1.3069437561
 H          1.8129384264       -0.5145985789        1.7035379803
 H         -0.6782312697       -0.8681095704        1.7971079980
 H         -0.4372576621       -2.4834282649        1.1335369892
 H          0.7768360582       -1.4618751678        3.7398118938
 H         -0.6193148586       -2.5344401411        3.6053509250
 H          1.4750948608       -3.8178914959        4.0465208256
 H          0.7649743920       -4.2422510093        2.4851807450
 H          3.2004531095       -3.9250643311        2.2425721171
 H          3.0777159357       -2.3053731728        2.9345710557
 H          1.7594701975       -3.2358587738        0.3385949750
 H          3.1861503680       -2.2087147774        0.4620836076
 H          0.4264412178        0.9992733473        1.3882136615
 H          0.7881828435        2.3655467386        0.3499510431
