63
 energy: -92.220291862911 gnorm: 0.000032891994 xtb: 6.7.1 (edcfbbe)
C           -7.76268974097021        1.66587436646123        1.42151037233553
C           -6.52265655627671        2.43701993447337        1.85844957359745
C           -5.67236453737529        2.92960474722228        0.68604269735004
C           -5.09160034902080        1.82975244874957       -0.20499868190535
C           -4.09692381071404        0.92688735676633        0.52184946110552
C           -3.49850860184180       -0.15573758562369       -0.37730027830589
C           -2.55045677879376        0.39750172925728       -1.43877974209176
C           -1.88409021449550       -0.71675316503734       -2.25589869860151
N           -1.00078248004737       -1.52639590003569       -1.46208550039254
C           -1.28707007830489       -2.74679855161552       -0.89951474042519
C           -2.43485560093346       -3.52391471605349       -0.98960329572097
C           -2.45446462943743       -4.73397908847278       -0.32458513100441
C           -1.36188226017477       -5.17479573369548        0.41947907080836
C           -0.21639680046287       -4.41116683955896        0.51421244249295
C           -0.17177217161090       -3.19055284080500       -0.14654521097281
C            0.82794637920860       -2.16864172287142       -0.26527272055330
C            2.11450217941967       -2.03117213339595        0.23283070909142
C            2.83984441704170       -0.88948766869673       -0.08502424331542
N            4.13368978799803       -0.78975675056977        0.43256833921266
C            5.07508054094753        0.15936622385271        0.29593070950975
N            6.22392622669161       -0.10914891059715        0.94348933705740
C            7.16375304868721        0.80778816093720        0.82283989869619
O            8.33080704987304        0.63127116404717        1.42436378306641
C            8.47731038265779       -0.56418238961953        2.16824523553038
N            7.05348770392994        1.93785922202831        0.12911323660890
C            5.88184659830393        2.10369455885351       -0.46825229279631
O            5.67276713979557        3.19711569832538       -1.18327676196260
C            6.74922765495915        4.11643913717441       -1.25014783923342
N            4.86274830128804        1.25792665038903       -0.42193399908062
C            2.27843174464754        0.10596878174290       -0.89394023223357
C            0.99863302833490       -0.01912062514092       -1.39444943818831
C            0.26854619878711       -1.15807080215427       -1.08245083367012
H           -7.49251610402115        0.72785229135912        0.94362523615509
H           -8.38693047328195        1.43717872023001        2.28250003171109
H           -8.34962617542480        2.25490179548848        0.71972472565426
H           -5.91890949920958        1.81214781158603        2.51843845135743
H           -6.83639883244219        3.30968822315113        2.43676736793076
H           -4.84857351432382        3.52886597018723        1.08222218373853
H           -6.28733226152488        3.58651973846538        0.06529355524098
H           -4.59001321380664        2.31485645683496       -1.04483387025127
H           -5.90010393395943        1.22167126524191       -0.61424288990367
H           -4.60279477494592        0.43387151075243        1.35351185078731
H           -3.29113736568299        1.53616433118130        0.93803188729169
H           -2.94869974362020       -0.86216826077270        0.24897927284277
H           -4.30849635531950       -0.70472136966463       -0.86422000250101
H           -1.77454767554444        0.99261125546739       -0.95289471434077
H           -3.09396779844837        1.04458051055828       -2.12845976673430
H           -1.30553916444025       -0.27421527287376       -3.07369875351447
H           -2.64825511236349       -1.36371908159823       -2.69287200173441
H           -3.29356787511738       -3.19998523591977       -1.55799618381118
H           -3.33786255282398       -5.35305034816960       -0.38149017648899
H           -1.41763876231988       -6.12692462167197        0.92586816835548
H            0.63145584472568       -4.75214902808563        1.08931855466598
H            2.54515838970625       -2.80198327909243        0.85573530231313
H            4.43832400883589       -1.56663845742196        1.00497776844139
H            7.73510699248518       -0.61426001377757        2.96767886628044
H            9.48245098340969       -0.53335301130882        2.58298216327110
H            8.35654818411226       -1.43688354191742        1.52301275425506
H            7.62912484371502        3.64701312150398       -1.69375819707937
H            7.01242140939687        4.47412583855828       -0.25306854370076
H            6.39770703558908        4.93708703215626       -1.87180274470621
H            2.87070202654240        0.97598026377975       -1.11896388759354
H            0.58788069796781        0.76053962944467       -2.01723363393604
