63
 energy: -92.225649028573 gnorm: 0.000054992555 xtb: 6.7.1 (edcfbbe)
C            1.64238149684873       -1.51295420105000       -2.17744671827637
C            0.36898940283201       -2.20406859539116       -2.64926075406725
C           -0.82804006094340       -1.82615510239633       -1.78121706273463
C           -2.12929201601601       -2.45059731092913       -2.28019913911069
C           -3.33610690141588       -2.07187424164635       -1.41920059027343
C           -3.39706398414415       -2.85556903794122       -0.10724366970729
C           -4.52336230492943       -2.37946282816160        0.81893771875585
C           -4.06791629205540       -1.33445907838421        1.84870666448574
N           -3.47461570620077       -0.17089598721520        1.25075744556182
C           -4.16758799276388        0.81967045781932        0.59771224280844
C           -5.53770665532065        1.00575389649635        0.46953495388980
C           -5.97804547874626        2.10567057786838       -0.24020829044851
C           -5.08429265102149        3.00633343483024       -0.81652853525103
C           -3.72112266517534        2.82984842404126       -0.69316535707000
C           -3.25324094291090        1.73260635345686        0.01800854902048
C           -1.94244463056700        1.24504564585525        0.33755347706946
C           -0.66421681693002        1.68747710814169        0.03225244512649
C            0.42634455171581        0.95754587471243        0.48696826886415
N            1.69870076834392        1.41965808623671        0.14173726561000
C            2.90667023487798        0.84204345099128        0.25522794482360
N            3.91608237754823        1.57103336854580       -0.25341311854046
C            5.10945610261830        1.01749862466447       -0.16173776886830
O            6.16707208749500        1.66225287728722       -0.63108307606085
C            5.92130882595828        2.93103040851557       -1.20879984689512
N            5.36781230058430       -0.17256836604763        0.37400061753037
C            4.30322543637512       -0.80525417169992        0.84598111416641
O            4.45446561854984       -1.99869799412472        1.39706434116595
C            5.77576167324963       -2.51005230078379        1.42915866254051
N            3.05884676504591       -0.35081969919793        0.82213929840788
C            0.23545485070663       -0.18713643476445        1.26938477072461
C           -1.03127707098846       -0.63557813702453        1.58081597292939
C           -2.12845844632155        0.06765389289129        1.10160373555878
H            2.49464974882421       -1.82166185716999       -2.77944788200551
H            1.53939451109223       -0.43252867018956       -2.25815235552093
H            1.84792313930818       -1.75387762748217       -1.13680020766103
H            0.51003862871218       -3.28700677877198       -2.61831270567619
H            0.16827982742918       -1.92701804109814       -3.68735445520557
H           -0.93553907207116       -0.73896420335146       -1.77052279712863
H           -0.62897763577365       -2.14165906373453       -0.75644717630491
H           -2.02836692163324       -3.53839895373348       -2.30714746880925
H           -2.30649648182365       -2.11214240223441       -3.30404241669448
H           -4.25293839062032       -2.27003331856507       -1.98100855507766
H           -3.30074542864399       -1.00054155201888       -1.21985029177999
H           -3.55168837029084       -3.90996349828918       -0.34772727792725
H           -2.44229089957035       -2.77721309459245        0.41225509769458
H           -4.92816580640649       -3.22563493661581        1.37781319370035
H           -5.33181504099099       -1.96362410528348        0.21492769856424
H           -3.33352017242421       -1.78184210929636        2.52194874676418
H           -4.92901262466342       -1.02082345481357        2.44949356888998
H           -6.24356654231313        0.31848532856746        0.91103340777536
H           -7.03950223573399        2.27176505200975       -0.35256070161980
H           -5.46919002183870        3.85306370308441       -1.36522646835405
H           -3.02905111598436        3.52917005607449       -1.13806409287389
H           -0.52200215427148        2.58152780917477       -0.55792433690705
H            1.72941319843520        2.30727796950546       -0.34302499401854
H            5.47374514510223        3.60748627108606       -0.47764210275194
H            5.24613753029677        2.84131669229377       -2.06236089707469
H            6.89191850626458        3.30378358187494       -1.52849660062654
H            5.70334925190135       -3.48399337984686        1.90838963734386
H            6.43083419557551       -1.84837338180415        1.99866356705103
H            6.17481018272387       -2.60729682059429        0.41791080835472
H            1.10324084938022       -0.72220781368460        1.61381251001774
H           -1.14662082383999       -1.52140113751923        2.18729871553901
