63
 energy: -92.118682569623 gnorm: 0.000043139119 xtb: 6.7.1 (edcfbbe)
C            1.60053236688883       -1.49230179393199       -2.22707993289840
C            0.32899691600881       -2.19931286479414       -2.68027897276438
C           -0.86785947796925       -1.80884804411780       -1.81748593952556
C           -2.16600804191885       -2.45442325128932       -2.29744991035013
C           -3.37042442632800       -2.07670965433421       -1.43256074372114
C           -3.41511775250678       -2.84877189275270       -0.11282037483791
C           -4.53156820791574       -2.36562496148672        0.82089525862681
C           -4.05486374356484       -1.33213883405620        1.85556560506553
N           -3.44821801229787       -0.18331022430808        1.25240115280621
C           -4.15829969273145        0.82186286371746        0.59761914223267
C           -5.51533567315523        0.99573720741678        0.50060374879070
C           -5.98377377729681        2.12261781746640       -0.23393881437633
C           -5.10097718893929        2.99618133467976       -0.81929659418599
C           -3.71568350808384        2.82172941362723       -0.72148911469661
C           -3.23305644377986        1.71926802131559        0.00278511912023
C           -1.93874024412905        1.24206727145965        0.30965622236696
C           -0.64974302267002        1.65829459715978       -0.00785717709790
C            0.43945078653579        0.91064887581353        0.44019756559568
N            1.68307363512761        1.33697342665189        0.07310236681698
C            2.92139021582186        0.78889488538903        0.24254909275020
N            3.91342545076114        1.53452440969504       -0.27989362153945
C            5.12167390894351        1.02409734553888       -0.14725310645818
O            6.16729352612929        1.68239336227065       -0.62710549510352
C            5.89152034327046        2.91699903977016       -1.26143748186827
N            5.41034495275244       -0.13570664803042        0.44456263213360
C            4.35396899769163       -0.78685987286852        0.92514453682506
O            4.53710958419083       -1.95025969741690        1.53138415260355
C            5.87536162119851       -2.40804306167659        1.61382684979897
N            3.09703434073074       -0.37872301451814        0.85552771567720
C            0.25537761588331       -0.24909116157010        1.25949078333065
C           -1.02439951481176       -0.67524584854391        1.58588132575039
C           -2.11329255788527        0.03292672846136        1.10931789650095
H            2.45313448403418       -1.81433841294331       -2.82133022358397
H            1.49453255098220       -0.41472685185614       -2.33694379646031
H            1.80765737036818       -1.70641133078032       -1.18079746281241
H            0.47535193805058       -3.28055163909437       -2.62568849043214
H            0.12441521002975       -1.94620884220718       -3.72368218840848
H           -0.98388590075967       -0.72248220618446       -1.83287495689990
H           -0.66258966358972       -2.09859084274547       -0.78629269643476
H           -2.05360105924627       -3.54134674575967       -2.30933534142915
H           -2.35457739102070       -2.13286639618642       -3.32454427913548
H           -4.28928568302481       -2.28810924922944       -1.98589034678848
H           -3.34364278631955       -1.00289186159909       -1.24425997253061
H           -3.57038210755648       -3.90559308583663       -0.34119015084785
H           -2.45385919658639       -2.76453003417756        0.39427376227979
H           -4.94431000783217       -3.20802633879989        1.37903540119802
H           -5.33697554417057       -1.93328997602592        0.22493382712732
H           -3.32556973527298       -1.79551726552248        2.52339531048513
H           -4.91028823793113       -1.00321941030416        2.45530949676332
H           -6.22226646121367        0.32342465203351        0.96059953928641
H           -7.04758845632193        2.27710486387586       -0.32188902129397
H           -5.48095788382270        3.84295022587066       -1.37295370208738
H           -3.03476356925980        3.51329224778109       -1.19046260864744
H           -0.49474039295325        2.53892138865328       -0.61403371302542
H            1.72530202860432        2.20148237835756       -0.45520741379129
H            5.41023115218075        3.60878345574443       -0.56672962328514
H            5.23461670715105        2.77029173872791       -2.12154442023891
H            6.85502099911971        3.30776607583024       -1.58109663273404
H            5.82889590269587       -3.36229229068114        2.13423125577684
H            6.49202417155769       -1.69746036279778        2.16718630855191
H            6.30115694731944       -2.53361370096490        0.61667481092858
H            1.12478734791464       -0.77797899672342        1.60053353302235
H           -1.14516620310440       -1.55108962752499        2.20558913622675
