63
 energy: -92.118681660538 gnorm: 0.000126297462 xtb: 6.7.1 (edcfbbe)
C            1.55414873839838       -1.30406398113868       -2.34971618373588
C            0.27955293751542       -1.98483818869562       -2.83347031558209
C           -0.90792874412851       -1.65701325786627       -1.93250566289874
C           -2.20919405477501       -2.27752759090317       -2.43645158907015
C           -3.40354221529683       -1.96330576989863       -1.53307152194498
C           -3.42762567830218       -2.82039878712047       -0.26629771460262
C           -4.53193439508365       -2.40288365292255        0.71243847192116
C           -4.04290552134065       -1.43830500434039        1.80630549150046
N           -3.44020479103898       -0.25379760815397        1.27208620840508
C           -4.15463859272248        0.79175511158402        0.68920668915851
C           -5.51221585517696        0.97253221147657        0.61539796773209
C           -5.98546368049404        2.14423326467777       -0.04180358410670
C           -5.10664547671158        3.05264497256010       -0.57805661066485
C           -3.72081110749866        2.87114524353230       -0.50387205020922
C           -3.23344526487760        1.72428889859295        0.14421649121040
C           -1.93714025454649        1.22701084829119        0.40766748041409
C           -0.65063087981169        1.66016547375149        0.10305656849259
C            0.44153378677112        0.88434678253488        0.49207229915268
N            1.68204624085791        1.32890610961722        0.13619647667008
C            2.92074669066097        0.76942576034909        0.25952245954249
N            3.90711882015773        1.53433787170931       -0.24560785882468
C            5.11528521180359        1.01433499140955       -0.15593612800959
O            6.15519933724192        1.68804373988238       -0.62668940381663
C            5.87360380281453        2.94740362009401       -1.20751059251815
N            5.40941710483974       -0.17019567793945        0.38179892949921
C            4.35847907545530       -0.83846291104002        0.85070440183346
O            4.54691769433645       -2.02683344449980        1.40463044592224
C            5.88482136573660       -2.49084312665523        1.44856834265610
N            3.10193609446030       -0.42464687985668        0.81742099774497
C            0.26324835723869       -0.32377065439386        1.23982426725082
C           -1.01404844464868       -0.76820357811660        1.55117719963050
C           -2.10628364292029       -0.03018424483286        1.13075422244957
H            2.40048741262868       -1.58199253180243       -2.97438319757760
H            1.44291009070475       -0.22206366618360       -2.38610666214432
H            1.77486602597679       -1.58696829832745       -1.32269972896663
H            0.43017778155106       -3.06669507030582       -2.85204526735308
H            0.06148133436189       -1.66429490950096       -3.85536502496611
H           -1.02922502064560       -0.57255195669022       -1.87675233512709
H           -0.68813695206784       -2.01113669472509       -0.92464450145298
H           -2.09173420918577       -3.36074225023354       -2.52015431953111
H           -2.41305580289715       -1.89124804174464       -3.43800252631421
H           -4.32885117964139       -2.14243271801053       -2.08703164260488
H           -3.37862026427316       -0.90400898670000       -1.27512148866619
H           -3.58365893209397       -3.86049195521667       -0.56125589766207
H           -2.45951191973337       -2.76645866243669        0.23182225059822
H           -4.93529861124907       -3.28128057872669        1.21961016309784
H           -5.34632775093442       -1.93476008161333        0.15714846112029
H           -3.30760211619924       -1.94439734532797        2.43540933195733
H           -4.89158505520813       -1.14773119338939        2.43476451570864
H           -6.21595033578095        0.27274260113188        1.03776473930776
H           -7.04976127824010        2.30484139031658       -0.11052449726938
H           -5.49032055762584        3.93330641789419       -1.07319464805183
H           -3.04299798653817        3.59067846251505       -0.93363635018809
H           -0.50007590161664        2.57645430285617       -0.44893394317067
H            1.72013479912500        2.21996644792016       -0.34633971791741
H            5.41125956418412        3.61473817051345       -0.47694929821299
H            5.19788481128660        2.83701707551111       -2.05842934099450
H            6.83252984267605        3.34502877885421       -1.53245302163277
H            5.84316954155062       -3.46502292143613        1.93108752480738
H            6.51188307461883       -1.80451290237046        2.02053061998239
H            6.29526739397556       -2.57754362027309        0.44089284456358
H            1.13502647837427       -0.87368520458136        1.53900337654000
H           -1.13031277164853       -1.68148333075833        2.11516535149265
