  48
  -82.6757130152000       0.257767228709353      !
 N         -6.2018563524       -1.4980722114       -3.1216422795
 C         -5.6503946417       -1.0632974730       -2.2164504022
 C         -4.9648935354       -0.5268622650       -1.0993095240
 C         -5.6876280504       -0.0103931204       -0.0271769350
 C         -4.9953145317        0.5117624041        1.0621258135
 C         -5.7127523244        1.0433375521        2.1614586335
 N         -6.2906460480        1.4745708040        3.0518470826
 C         -3.6001905389        0.5172955662        1.0810795460
 C         -2.8853065842        0.0015916217        0.0068776816
 C         -1.4033517603        0.0082932647        0.0201267596
 C         -0.7134963050       -1.0414825522        0.6378654637
 C         -1.3936476734       -2.1191527278        1.2638638271
 C         -0.7092229686       -3.1257923664        1.8714464892
 C          0.6998025176       -3.1132568849        1.8954102945
 C          1.3894293961       -2.1018088443        1.3011945172
 C          0.7163333160       -1.0391855232        0.6425635278
 C          1.4075139700        0.0096750275        0.0207068853
 C          2.8869313375        0.0024479299        0.0085883643
 C          3.6026083596        0.9029404654        0.7895833015
 C          4.9975783314        0.8933799556        0.7729474457
 C          5.7132972500        1.8165394085        1.5733048089
 N          6.2894303241        2.5659829447        2.2203469032
 C          5.6915173292       -0.0128368766       -0.0244340596
 C          4.9694414139       -0.9121340002       -0.8045683344
 C          5.6553097213       -1.8429915335       -1.6222562466
 N          6.2074301349       -2.5987959556       -2.2830737266
 C          3.5746382250       -0.9063222226       -0.7880320474
 C          0.7158407765        1.0617359483       -0.5953137671
 C          1.3876875378        2.1278904520       -1.2495376545
 C          0.6970000574        3.1417161974       -1.8384659113
 C         -0.7119972919        3.1523620815       -1.8150076407
 C         -1.3952940416        2.1415284400       -1.2131964156
 C         -0.7139904664        1.0622962130       -0.5911299371
 C         -3.5698938018       -0.5204573567       -1.0841082730
 H         -6.7676325946       -0.0144287818       -0.0405192382
 H         -3.0757339202        0.9252980155        1.9330520139
 H         -2.4743083616       -2.1258980916        1.2514547139
 H         -1.2394316491       -3.9386534758        2.3438684162
 H          1.2275097216       -3.9135093437        2.3917159178
 H          2.4695506456       -2.0942290749        1.3298641925
 H          3.0781480167        1.6105694180        1.4154792913
 H          6.7714913453       -0.0183198057       -0.0373933349
 H          3.0277063890       -1.6080760608       -1.4013713743
 H          2.4678076047        2.1224477700       -1.2773479335
 H          1.2238624719        3.9454716619       -2.3299962257
 H         -1.2431947155        3.9670305879       -2.2832168628
 H         -2.4759429808        2.1470918141       -1.2008347571
 H         -3.0212584911       -0.9231206852       -1.9232989357
  48
  -82.6756459706000       0.240113256353768      !
 N         -6.2184391827       -2.3726179948       -2.5047849044
 C         -5.6632724158       -1.6802658475       -1.7803313205
 C         -4.9730443946       -0.8294319976       -0.8829880630
 C         -5.6907725137       -0.0132329281       -0.0127920981
 C         -4.9921899429        0.8133311540        0.8631922663
 C         -5.7028556284        1.6522259740        1.7557875757
 N         -6.2747992402        2.3336559870        2.4777324070
 C         -3.5972361924        0.8242834063        0.8705598166
 C         -2.8855874715        0.0063577364       -0.0000123026
 C         -1.4065396394        0.0109997628        0.0078737764
 C         -0.7158733268       -1.1058723200        0.4986904971
 C         -1.3929664407       -2.2373946455        1.0253977558
 C         -0.7081076314       -3.3080581693        1.5111780157
 C          0.7006105873       -3.3077859021        1.5152552193
 C          1.3881538282       -2.2374862894        1.0323662715
 C          0.7141196405       -1.1063360690        0.5009185869
 C          1.4070556288        0.0092529495        0.0098858138
 C          2.8858385243        0.0036647156        0.0033685786
 C          3.5972566268        0.8383595657        0.8583364606
 C          4.9921621256        0.8303883723        0.8491041916
 C          5.7022458396        1.6890953542        1.7231054224
 N          6.2734841802        2.3871457834        2.4295201126
 C          5.6913187566       -0.0111923731       -0.0119686021
 C          4.9740473472       -0.8452341179       -0.8654525911
 C          5.6648109509       -1.7112649372       -1.7475674198
 N          6.2198759350       -2.4156756910       -2.4602592754
 C          3.5792289461       -0.8383660651       -0.8592667220
 C          0.7162271458        1.1275625925       -0.4777150301
 C          1.3922510950        2.2595996014       -1.0047275113
 C          0.7066013611        3.3326928939       -1.4840961749
 C         -0.7021596265        3.3347636271       -1.4817591233
 C         -1.3889888065        2.2629577699       -1.0012977115
 C         -0.7139464829        1.1288641535       -0.4774632184
 C         -3.5782082088       -0.8204995434       -0.8777580100
 H         -6.7707345612       -0.0211256577       -0.0172902512
 H         -3.0694542249        1.4667632423        1.5607408508
 H         -2.4732023452       -2.2345286944        1.0440531082
 H         -1.2391004241       -4.1605373781        1.9066605024
 H          1.2295117875       -4.1598567581        1.9144305117
 H          2.4682399271       -2.2347772371        1.0574093905
 H          3.0691873376        1.4923777425        1.5372112318
 H          6.7712834907       -0.0167338032       -0.0178747448
 H          3.0367469345       -1.4872033404       -1.5317690903
 H          2.4723850017        2.2558140852       -1.0281564682
 H          1.2370857359        4.1857945696       -1.8790031187
 H         -1.2314403503        4.1897498749       -1.8741499120
 H         -2.4692296193        2.2615129574       -1.0206748280
 H         -3.0351108731       -1.4570609729       -1.5613674258
  48
  -82.6754103256000       0.187120424352022      !
 N         -6.1908838670       -1.8459056226       -2.9398987034
 C         -5.6432923481       -1.3099461087       -2.0881810336
 C         -4.9617785606       -0.6503311283       -1.0364244686
 C         -5.6878935895       -0.0275195899       -0.0247954532
 C         -4.9987924306        0.6131210210        1.0015157479
 C         -5.7192664499        1.2536495141        2.0389796776
 N         -6.2989459803        1.7728831180        2.8798136920
 C         -3.6037865854        0.6296114830        1.0187886997
 C         -2.8851481532        0.0069864193        0.0051769778
 C         -1.4039339382        0.0196150971        0.0190388418
 C         -0.7140138374       -0.8871202224        0.8331456786
 C         -1.3946569856       -1.8251764243        1.6533755011
 C         -0.7113952568       -2.7140794822        2.4240000905
 C          0.6975305182       -2.7283587860        2.4112546812
 C          1.3876496291       -1.8487406176        1.6355222143
 C          0.7159856533       -0.8912310333        0.8304033122
 C          1.4079004466        0.0212501787        0.0213217285
 C          2.8865933462        0.0098621917        0.0072045908
 C          3.6072132431        0.4256222421        1.1213677964
 C          5.0020602697        0.4080331556        1.1031148191
 C          5.7215172040        0.8306497182        2.2473994195
 N          6.3015196481        1.1703818575        3.1753506411
 C          5.6917633453       -0.0236510915       -0.0266987085
 C          4.9651763187       -0.4376326371       -1.1399682025
 C          5.6464750159       -0.8782047800       -2.3006838219
 N          6.1959716558       -1.2325003131       -3.2414805093
 C          3.5705664055       -0.4214865216       -1.1243018100
 C          0.7159585769        0.9388409658       -0.7818520667
 C          1.3882821476        1.9012233832       -1.5805461619
 C          0.6985397929        2.7851300480       -2.3517509987
 C         -0.7103691989        2.7686246088       -2.3679543558
 C         -1.3941756395        1.8737422328       -1.6046986764
 C         -0.7138678459        0.9330143648       -0.7873047083
 C         -3.5669075672       -0.6321720880       -1.0237274159
 H         -6.7678215019       -0.0410942176       -0.0360221920
 H         -3.0821298702        1.1297581483        1.8220386201
 H         -2.4753045690       -1.8252406114        1.6530203612
 H         -1.2427640611       -3.4202702966        3.0437021700
 H          1.2249628766       -3.4482925517        3.0184624252
 H          2.4676296544       -1.8753648689        1.6204625838
 H          3.0867523815        0.7687245921        2.0040069504
 H          6.7716180292       -0.0371833835       -0.0394524014
 H          3.0205461539       -0.7516391010       -1.9938651038
 H          2.4682151986        1.9295306277       -1.5619192758
 H          1.2261601114        3.5103122342       -2.9525310093
 H         -1.2412777708        3.4781158946       -2.9842776607
 H         -2.4748526921        1.8724050501       -1.6061712614
 H         -3.0159114826       -1.1196848269       -1.8150564437
  48
  -82.6752581921000       0.159296222763425      !
 N         -6.3199374639       -2.1415055682       -2.5978722159
 C         -5.7330952992       -1.5166324663       -1.8378968869
 C         -5.0058606632       -0.7433818376       -0.9004034800
 C         -5.6883644484        0.0234408298        0.0401975600
 C         -4.9559593650        0.7779076982        0.9528725348
 C         -5.6305240430        1.5633996342        1.9190297669
 N         -6.1739420799        2.1992775419        2.7018686146
 C         -3.5612137307        0.7670790926        0.9254803986
 C         -2.8862708476       -0.0025219229       -0.0146393104
 C         -1.4046745550       -0.0154891160       -0.0350223440
 C         -0.7154838987       -1.0411915644        0.6233116553
 C         -1.3930097658       -2.0860494986        1.3051575938
 C         -0.7056031854       -3.0742461643        1.9393893860
 C          0.7039119142       -3.0783627470        1.9335845035
 C          1.3915996806       -2.0919354433        1.2970286510
 C          0.7141842202       -1.0414058919        0.6237418624
 C          1.4043794982       -0.0157021736       -0.0331529518
 C          2.8863181214       -0.0042874160       -0.0110111197
 C          3.5605414088        0.6036302252        1.0412572620
 C          4.9553508982        0.6143248407        1.0680950197
 C          5.6295222473        1.2375153992        2.1463855011
 N          6.1699634721        1.7429430867        3.0211199242
 C          5.6881679272        0.0173849708        0.0457998855
 C          5.0061771008       -0.5897361744       -1.0053489963
 C          5.7348382939       -1.2032556217       -2.0533192957
 N          6.3211881341       -1.7000205314       -2.9029606444
 C          3.6112091159       -0.6007104385       -1.0355040234
 C          0.7154463703        1.0034914441       -0.7012348568
 C          1.3936793342        2.0494383001       -1.3807533429
 C          0.7067139465        3.0294229851       -2.0280411245
 C         -0.7028775490        3.0250012619       -2.0360373628
 C         -1.3910477943        2.0430810517       -1.3929279465
 C         -0.7142882582        1.0032375667       -0.7027199163
 C         -3.6108523917       -0.7585908690       -0.9280149019
 H         -6.7681954183        0.0326146019        0.0616556682
 H         -3.0048885719        1.3575129255        1.6391699298
 H         -2.4737504921       -2.0846000036        1.3122273634
 H         -1.2344683901       -3.8631900063        2.4522309251
 H          1.2323962415       -3.8715899413        2.4402968459
 H          2.4723757526       -2.0964675270        1.2943577658
 H          3.0038890251        1.0695272301        1.8415313560
 H          6.7680500072        0.0246942291        0.0680210776
 H          3.0947593796       -1.0754947606       -1.8572544789
 H          2.4745132163        2.0534868495       -1.3773580887
 H          1.2357588291        3.8174602336       -2.5421958058
 H         -1.2311405821        3.8083672786       -2.5580556435
 H         -2.4717890470        2.0404881654       -1.4023100332
 H         -3.0943284798       -1.3591879430       -1.6628038282
  48
  -82.6748028163000       9.838508158645012E-002 !
 N         -6.2484369348       -0.9994501606       -3.2798226830
 C         -5.6839219188       -0.7125261105       -2.3248896205
 C         -4.9833153929       -0.3511080226       -1.1483841638
 C         -5.6916776490        0.0012920951       -0.0024641218
 C         -4.9838000147        0.3537599415        1.1438441361
 C         -5.6848253679        0.7138883865        2.3207136945
 N         -6.2478349841        1.0101754101        3.2738560780
 C         -3.5887673265        0.3528945708        1.1459483369
 C         -2.8866570649        0.0013981284       -0.0017308406
 C         -1.4072674104        0.0007525567       -0.0011244167
 C         -0.7165047188       -0.9876679425        0.7134756100
 C         -1.3903628735       -2.0152084249        1.4249658243
 C         -0.7018064397       -2.9602777940        2.1210346852
 C          0.7069536723       -2.9393482760        2.1486486018
 C          1.3920659165       -1.9825295595        1.4658708034
 C          0.7133518081       -0.9839884668        0.7186629550
 C          1.4041964634       -0.0002439557        0.0003618943
 C          2.8854297659       -0.0009766686        0.0010768523
 C          3.5858806872        0.8763354391        0.8205616831
 C          4.9810407107        0.8730155802        0.8217774078
 C          5.6820891428        1.7702098108        1.6641614158
 N          6.2458759262        2.4906525040        2.3536153227
 C          5.6886690068       -0.0026635410        0.0025449633
 C          4.9808308381       -0.8774553905       -0.8173708604
 C          5.6821557736       -1.7756529967       -1.6582449515
 N          6.2467596806       -2.4995099817       -2.3437502664
 C          3.5856840645       -0.8791912969       -0.8175652352
 C          0.7148479840        0.9840297640       -0.7186128809
 C          1.3950106289        1.9823285159       -1.4647886629
 C          0.7112525795        2.9397126488       -2.1480944609
 C         -0.6975262554        2.9613342528       -2.1223772677
 C         -1.3874559308        2.0165656720       -1.4273291157
 C         -0.7150250625        0.9886409169       -0.7150107432
 C         -3.5883485115       -0.3495190853       -1.1500280561
 H         -6.7717380773        0.0008630438       -0.0028018070
 H         -3.0532408109        0.6311892655        2.0424626020
 H         -2.4703822416       -2.0398594436        1.4036930637
 H         -1.2300581136       -3.7337952113        2.6575450030
 H          1.2367964892       -3.6917872313        2.7128306927
 H          2.4724964912       -1.9703710716        1.4849566623
 H          3.0495422786        1.5616327207        1.4610097925
 H          6.7687860170       -0.0036139183        0.0033187419
 H          3.0491835612       -1.5638035715       -1.4586107327
 H          2.4754561798        1.9696585742       -1.4824811728
 H          1.2422093183        3.6920810549       -2.7112928842
 H         -1.2247133459        3.7350513092       -2.6596237973
 H         -2.4674753565        2.0418045432       -1.4073572744
 H         -3.0525118556       -0.6287987478       -2.0457910397
  48
  -82.6742922504000       5.731778623498073E-002 !
 N         -6.2458910588       -0.7320763321       -3.3508496851
 C         -5.6827047023       -0.5211210135       -2.3758269815
 C         -4.9826219960       -0.2571844793       -1.1734339520
 C         -5.6912984134        0.0044829981       -0.0038333092
 C         -4.9834939354        0.2640696332        1.1667329167
 C         -5.6841077645        0.5298199600        2.3684381142
 N         -6.2482816182        0.7424644605        3.3425897335
 C         -3.5885724747        0.2628220263        1.1690194570
 C         -2.8857268553        0.0007908790       -0.0019815207
 C         -1.4069612653       -0.0002922757       -0.0010566457
 C         -0.7159072886       -1.0156741750        0.6749311873
 C         -1.3915118289       -2.0728646956        1.3399753457
 C         -0.7061934465       -3.0375566621        2.0116067199
 C          0.7012559411       -3.0035387077        2.0637652714
 C          1.3881139498       -2.0209737188        1.4202335487
 C          0.7140523368       -1.0079130691        0.6883036850
 C          1.4068964533       -0.0017346432        0.0006350131
 C          2.8857621877       -0.0023661587        0.0015271585
 C          3.5878946953        0.9817527649        0.6888201433
 C          4.9828172068        0.9802740386        0.6887690917
 C          5.6830134941        1.9908802021        1.3915941450
 N          6.2458976253        2.8120571624        1.9584512644
 C          5.6911975963       -0.0029697205        0.0031996432
 C          4.9832013400       -0.9859574356       -0.6831459791
 C          5.6843139526       -1.9967907623       -1.3847338709
 N          6.2462853029       -2.8175117822       -1.9531525345
 C          3.5882566300       -0.9868447902       -0.6848886619
 C          0.7159186499        1.0054532443       -0.6874522700
 C          1.3918784213        2.0185554036       -1.4175705378
 C          0.7068215601        3.0027499762       -2.0605301451
 C         -0.7006460899        3.0381712213       -2.0100046594
 C         -1.3877554349        2.0732323445       -1.3405689251
 C         -0.7140356307        1.0146766589       -0.6757822070
 C         -3.5876989776       -0.2596104962       -1.1738906839
 H         -6.7713178813        0.0060611977       -0.0046163165
 H         -3.0535519156        0.4715763186        2.0843370451
 H         -2.4708126776       -2.1045330586        1.3030880555
 H         -1.2359469396       -3.8336607332        2.5122945656
 H          1.2297177435       -3.7660956080        2.6154363001
 H          2.4674446200       -1.9999739178        1.4635804329
 H          3.0523075129        1.7487668186        1.2296216748
 H          6.7712192697       -0.0031820409        0.0037723292
 H          3.0529851919       -1.7536745913       -1.2262667466
 H          2.4712284158        1.9964471935       -1.4597648909
 H          1.2367391567        3.7654894233       -2.6105456811
 H         -1.2289950097        3.8355133280       -2.5102033923
 H         -2.4670685495        2.1059365988       -1.3050516937
 H         -3.0520173611       -0.4697662093       -2.0885054190
