  48
        -82.91156270
 N         -6.2474102756        1.2851729894       -3.1770237207
 C         -5.6837799956        0.9084054418       -2.2535967265
 C         -4.9831523547        0.4469065741       -1.1126905116
 C         -5.6913014091        0.0008303621        0.0000532715
 C         -4.9829681767       -0.4462550623        1.1122476540
 C         -5.6830381259       -0.9071080608        2.2537794912
 N         -6.2467692467       -1.2829871139        3.1775778237
 C         -3.5880450766       -0.4473429281        1.1132614909
 C         -2.8857274156       -0.0007801043       -0.0008422404
 C         -1.4069611439       -0.0008882857       -0.0008685830
 C         -0.7148304398       -1.2199843341       -0.0174656799
 C         -1.3893365812       -2.4685866856       -0.0665641253
 C         -0.7029776374       -3.6434144351       -0.0580943207
 C          0.7044798984       -3.6436004024        0.0039924297
 C          1.3903017912       -2.4687039235        0.0286410584
 C          0.7151314845       -1.2198784754       -0.0022186371
 C          1.4068974214       -0.0005452370       -0.0006251797
 C          2.8857635189       -0.0002623019       -0.0004231787
 C          3.5876557315        0.4234961962        1.1227988912
 C          4.9825786356        0.4235393464        1.1217539528
 C          5.6825263927        0.8603617910        2.2727630767
 N          6.2452060483        1.2176917163        3.2045377644
 C          5.6911992108        0.0007760042        0.0002796679
 C          4.9834430702       -0.4225902610       -1.1215207204
 C          5.6848045459       -0.8590599275       -2.2718053767
 N          6.2469786867       -1.2141358338       -3.2047447661
 C          3.5884984600       -0.4235708745       -1.1232930513
 C          0.7148410708        1.2186331521        0.0013591825
 C          1.3896926679        2.4676628375       -0.0281442014
 C          0.7035995010        3.6423663464       -0.0019383058
 C         -0.7038607861        3.6417710341        0.0599314033
 C         -1.3899301741        2.4667669409        0.0666146750
 C         -0.7151117589        1.2183777605        0.0163707147
 C         -3.5882285594        0.4463977437       -1.1146056527
 H         -6.7713219604        0.0016193966        0.0004288497
 H         -3.0526148751       -0.7921942553        1.9862011805
 H         -2.4686381205       -2.4748066303       -0.1147655665
 H         -1.2319040557       -4.5836121597       -0.0951598998
 H          1.2337766710       -4.5840168070        0.0278197063
 H          2.4696440830       -2.4749358212        0.0761386394
 H          3.0518847689        0.7499110538        2.0025905150
 H          6.7712209373        0.0012324951        0.0005028643
 H          3.0534107615       -0.7504550817       -2.0033280261
 H          2.4690316046        2.4742384752       -0.0755759166
 H          1.2326825762        4.5829335861       -0.0244234195
 H         -1.2330368860        4.5817773636        0.0982268909
 H         -2.4692432442        2.4727063778        0.1145298196
 H         -3.0529556633        0.7906429239       -1.9878859710
  48
        -82.91151110
 N         -6.2186313596       -0.5588830806       -3.4041919969
 C         -5.6634107842       -0.3927556390       -2.4159984854
 C         -4.9731139954       -0.1925629519       -1.1957644445
 C         -5.6907724693       -0.0064373896       -0.0172572612
 C         -4.9921215093        0.1856777510        1.1716720915
 C         -5.7027162894        0.3780014366        2.3814585521
 N         -6.2746034685        0.5359720833        3.3615917197
 C         -3.5971686053        0.1912560972        1.1837334507
 C         -2.8855891276        0.0039105010        0.0039460153
 C         -1.4065399769        0.0040164703        0.0128805946
 C         -0.7153393460       -1.1953802525       -0.2085092132
 C         -1.3918799414       -2.4277007591       -0.4082525141
 C         -0.7065032058       -3.5860414252       -0.6078522690
 C          0.7022162858       -3.5874442403       -0.6045140686
 C          1.3892426333       -2.4303836546       -0.4029097438
 C          0.7146544304       -1.1963433189       -0.2071171105
 C          1.4070562572        0.0027636015        0.0131886540
 C          2.8858382905        0.0024962179        0.0044604721
 C          3.5973143595        0.2131495149        1.1805677293
 C          4.9922187377        0.2123962894        1.1682659613
 C          5.7023600060        0.4322235782        2.3736082593
 N          6.2736436103        0.6132056693        3.3500763254
 C          5.6913171100        0.0001383449       -0.0169481682
 C          4.9739880853       -0.2108108963       -1.1914601155
 C          5.6646932291       -0.4314814163       -2.4078158336
 N          6.2197124617       -0.6136701970       -3.3932001380
 C          3.5791700105       -0.2092590794       -1.1822983891
 C          0.7156942086        1.2015431752        0.2380465757
 C          1.3911653636        2.4344604406        0.4378266055
 C          0.7049993411        3.5912094590        0.6440958123
 C         -0.7037612534        3.5909476985        0.6473804246
 C         -1.3900739761        2.4340048731        0.4429215493
 C         -0.7144795637        1.2018063033        0.2391768066
 C         -3.5782788223       -0.1874550339       -1.1866060385
 H         -6.7707335941       -0.0109482272       -0.0252681201
 H         -3.0693300005        0.3353612495        2.1155618240
 H         -2.4721096321       -2.4363164417       -0.3910644217
 H         -1.2370802328       -4.5137214666       -0.7594382307
 H          1.2315343795       -4.5163625497       -0.7529568776
 H          2.4693371290       -2.4417018070       -0.3808131897
 H          3.0692939781        0.3726552941        2.1096642194
 H          6.7712812436       -0.0006210394       -0.0250912803
 H          3.0366399782       -0.3685612315       -2.1030697866
 H          2.4712915580        2.4449967017        0.4161726458
 H          1.2350679704        4.5190809553        0.7965076554
 H         -1.2334572458        4.5184668560        0.8030739304
 H         -2.4703214612        2.4431862118        0.4262228137
 H         -3.0352376493       -0.3298517333       -2.1098159103
  48
        -82.91142701
 N         -6.2495109418        1.0271758884       -3.2691932133
 C         -5.6846807720        0.7238660308       -2.3195249674
 C         -4.9836901160        0.3567128531       -1.1450258093
 C         -5.6916780701       -0.0015682124       -0.0006991922
 C         -4.9834263424       -0.3590108619        1.1438361688
 C         -5.6840663539       -0.7284253000        2.3180540138
 N         -6.2467663041       -1.0237996875        3.2716624076
 C         -3.5883925323       -0.3599277274        1.1449341283
 C         -2.8866579020        0.0000893404       -0.0003310299
 C         -1.4072679925        0.0002608342       -0.0003526158
 C         -0.7156394457       -1.2185651184        0.0295577193
 C         -1.3886124248       -2.4688535877        0.0349143582
 C         -0.6992218730       -3.6414512262        0.0740727478
 C          0.7095403802       -3.6388205896        0.1085346102
 C          1.3938184815       -2.4630829081        0.0868378433
 C          0.7142173172       -1.2174543076        0.0357656336
 C          1.4041964082        0.0005877869        0.0000119652
 C          2.8854300638        0.0006273256        0.0000303724
 C          3.5858208795        0.2608526759        1.1720367238
 C          4.9809828772        0.2584147470        1.1710133510
 C          5.6819719554        0.5220781577        2.3731502512
 N          6.2457174270        0.7264306117        3.3491989276
 C          5.6886701863        0.0003895201       -0.0000097836
 C          4.9808905951       -0.2575191306       -1.1709447899
 C          5.6822757871       -0.5218717636       -2.3725526044
 N          6.2469244302       -0.7304750243       -3.3473965061
 C          3.5857449929       -0.2598277870       -1.1719397714
 C          0.7139821121        1.2184707106       -0.0358519228
 C          1.3932579834        2.4642771814       -0.0863538743
 C          0.7086655879        3.6398111159       -0.1080214223
 C         -0.7001116717        3.6420916937       -0.0744341455
 C         -1.3892075315        2.4693440750       -0.0358015078
 C         -0.7158912271        1.2192229077       -0.0301217163
 C         -3.5887252253        0.3599402733       -1.1456297035
 H         -6.7717381618       -0.0024952448       -0.0011062342
 H         -3.0525748173       -0.6373206142        2.0415538784
 H         -2.4686289777       -2.4779079119        0.0035407535
 H         -1.2268067502       -4.5831802962        0.0788584550
 H          1.2400521750       -4.5780770990        0.1479512176
 H          2.4742517171       -2.4630916638        0.1093400380
 H          3.0494359546        0.4631745327        2.0879090469
 H          6.7687877950       -0.0000675510       -0.0000236353
 H          3.0492906305       -0.4620060330       -2.0878037134
 H          2.4737012673        2.4646050449       -0.1082249389
 H          1.2389535938        4.5792035917       -0.1467789774
 H         -1.2279657523        4.5836550236       -0.0796023942
 H         -2.4692301615        2.4780905824       -0.0049396832
 H         -3.0531791609        0.6368541013       -2.0423005011
  48
        -82.91139616
 N         -6.1913282200        0.1486320679       -3.4673878337
 C         -5.6436082062        0.1059634789       -2.4620449871
 C         -4.9619350283        0.0514468912       -1.2218456252
 C         -5.6878928348       -0.0112105220       -0.0354267177
 C         -4.9986351712       -0.0668788957        1.1730518243
 C         -5.7189485402       -0.1296344016        2.3907962003
 N         -6.2984979023       -0.1804082591        3.3778009042
 C         -3.6036286925       -0.0624729092        1.1964849223
 C         -2.8851482439        0.0014610585        0.0085412445
 C         -1.4039333668        0.0046676983        0.0269638018
 C         -0.7134326090       -1.2037317770        0.1815860466
 C         -1.3934826697       -2.4420233658        0.3235978449
 C         -0.7096614285       -3.6110449804        0.4525725271
 C          0.6992642806       -3.6148956195        0.4338188014
 C          1.3888249093       -2.4499711484        0.2952169056
 C          0.7165670733       -1.2048889523        0.1768392304
 C          1.4079009760        0.0060281293        0.0294678998
 C          2.8865923833        0.0053686919        0.0112207516
 C          3.6074724374       -0.2852537523        1.1642080223
 C          5.0023185181       -0.2887050596        1.1390430782
 C          5.7220440597       -0.5908012662        2.3207127921
 N          6.3022652934       -0.8382435681        3.2772847228
 C          5.6917608729       -0.0016355512       -0.0360231180
 C          4.9649134323        0.2899397917       -1.1872637580
 C          5.6459433387        0.5872506091       -2.3928080422
 N          6.1952212115        0.8305349609       -3.3683472940
 C          3.5703040149        0.2936735414       -1.1650472076
 C          0.7153788170        1.2171471545       -0.1099893159
 C          1.3871090754        2.4632156280       -0.2204564057
 C          0.6968086157        3.6284524778       -0.3527468723
 C         -0.7121006245        3.6234199231       -0.3753068291
 C         -1.3953480750        2.4530272038       -0.2556458443
 C         -0.7144474919        1.2147835869       -0.1176325996
 C         -3.5670655596        0.0598259370       -1.2012298343
 H         -6.7678202174       -0.0165056196       -0.0522616930
 H         -3.0818490807       -0.1070834311        2.1415980309
 H         -2.4741302342       -2.4423786627        0.3233857845
 H         -1.2405829568       -4.5445267914        0.5613060505
 H          1.2271438051       -4.5520927597        0.5243477591
 H          2.4688080704       -2.4628187597        0.2675798133
 H          3.0872133648       -0.5046894490        2.0855272285
 H          6.7716152847       -0.0050203382       -0.0543236780
 H          3.0200825473        0.5158359934       -2.0681327552
 H          2.4670394625        2.4764290905       -0.1891607357
 H          1.2239822289        4.5668084683       -0.4351182345
 H         -1.2434562195        4.5572020746       -0.4792699850
 H         -2.4760250935        2.4522593126       -0.2575007583
 H         -3.0161923513        0.1085596489       -2.1294704926
  48
        -82.91133989
 N         -6.2027312103        0.5238087783       -3.4210587519
 C         -5.6510155655        0.3711240780       -2.4286834923
 C         -4.9652009753        0.1825763968       -1.2040258419
 C         -5.6876351761        0.0017616489       -0.0276123529
 C         -4.9950153909       -0.1828188704        1.1660093388
 C         -5.7121465860       -0.3665478389        2.3733983766
 N         -6.2897924446       -0.5147830018        3.3516961135
 C         -3.5998842683       -0.1877370567        1.1846044303
 C         -2.8853023702       -0.0051281532        0.0069177267
 C         -1.4033446405       -0.0057803891        0.0214577449
 C         -0.7124245643       -1.2203130336       -0.0626304534
 C         -1.3914873526       -2.4637354710       -0.1555132507
 C         -0.7060326646       -3.6369510473       -0.2235890312
 C          0.7029983098       -3.6389138925       -0.1969041372
 C          1.3915994778       -2.4680742028       -0.1152486855
 C          0.7174057793       -1.2198097660       -0.0576276083
 C          1.4075194024       -0.0024821281        0.0223814185
 C          2.8869337091       -0.0002828170        0.0081227690
 C          3.6024819021        0.3015325765        1.1613494380
 C          4.9974476867        0.3042865790        1.1420555915
 C          5.7130343630        0.6138509339        2.3240684821
 N          6.2890584602        0.8666894429        3.2814228222
 C          5.6915089300        0.0082614010       -0.0280921040
 C          4.9695615702       -0.2930602572       -1.1799322399
 C          5.6555562811       -0.5979358074       -2.3807597711
 N          6.2077811851       -0.8472344068       -3.3532076521
 C          3.5747649907       -0.2988498619       -1.1628400319
 C          0.7147811046        1.2129623503        0.1091788976
 C          1.3855300126        2.4628374287        0.1722707530
 C          0.6938189635        3.6314277498        0.2597968364
 C         -0.7151708266        3.6256992652        0.2853333129
 C         -1.3974377271        2.4510775663        0.2102893895
 C         -0.7150474344        1.2097941238        0.1131175380
 C         -3.5701969359        0.1804987484       -1.1880329981
 H         -6.7676446071        0.0050211322       -0.0407700053
 H         -3.0751878460       -0.3324384254        2.1179494940
 H         -2.4721505746       -2.4632392112       -0.1694331427
 H         -1.2354201007       -4.5749895540       -0.2934432200
 H          1.2315322898       -4.5791201983       -0.2400561609
 H          2.4717324452       -2.4770762395       -0.0874448569
 H          3.0779280429        0.5308635692        2.0777520354
 H          6.7714783862        0.0120213421       -0.0420103378
 H          3.0279307267       -0.5313820877       -2.0654357688
 H          2.4656366006        2.4750272850        0.1461257868
 H          1.2198547219        4.5727564063        0.3087421299
 H         -1.2471877459        4.5619078006        0.3598110256
 H         -2.4780825173        2.4477212670        0.2237602578
 H         -3.0217977378        0.3233265427       -2.1079449338
  48
        -82.91112760
 N         -6.3205738808       -0.2999543008       -3.3521588464
 C         -5.7335460247       -0.2131244909       -2.3722244095
 C         -5.0060814688       -0.1040181480       -1.1620294811
 C         -5.6883576594       -0.0015242134        0.0473310646
 C         -4.9557281484        0.1060784129        1.2264361260
 C         -5.6300598149        0.2095610563        2.4674288857
 N         -6.1732892551        0.2929332117        3.4726310528
 C         -3.5609851649        0.1121530122        1.1974864907
 C         -2.8862708799        0.0070961520       -0.0130433006
 C         -1.4046783227        0.0074223363       -0.0374272811
 C         -0.7158805238       -1.2110832309       -0.0728490638
 C         -1.3938070151       -2.4582365450       -0.0994492653
 C         -0.7067789270       -3.6321770381       -0.1336040309
 C          0.7027348964       -3.6327477077       -0.1409467097
 C          1.3908005498       -2.4593934060       -0.1099308727
 C          0.7137874088       -1.2119572263       -0.0728454508
 C          1.4043753906        0.0052989417       -0.0364573037
 C          2.8863169313        0.0017569388       -0.0119753836
 C          3.5607064247       -0.0903813136        1.1996842223
 C          4.9555183660       -0.0971400901        1.2276506148
 C          5.6298601170       -0.1913539217        2.4694117832
 N          6.1704395342       -0.2678786116        3.4766913081
 C          5.6881715955       -0.0133001095        0.0467037698
 C          5.0060147933        0.0788664319       -1.1635808950
 C          5.7345075136        0.1635088174       -2.3750795612
 N          6.3207209929        0.2326670121       -3.3569363902
 C          3.6110444108        0.0872663422       -1.1944436951
 C          0.7158332700        1.2239317480       -0.0127560715
 C          1.3944671354        2.4706704214        0.0163799664
 C          0.7078779407        3.6451988002        0.0351220132
 C         -0.7017146587        3.6465085982        0.0262527544
 C         -1.3902615008        2.4731771453        0.0031907725
 C         -0.7139012889        1.2250144888       -0.0138947348
 C         -3.6110773858       -0.1014362201       -1.1936320899
 H         -6.7681863094       -0.0057164517        0.0703971394
 H         -3.0044843460        0.1966799272        2.1197796000
 H         -2.4745474869       -2.4606859853       -0.0926204205
 H         -1.2359465387       -4.5727335045       -0.1553389566
 H          1.2309155189       -4.5737176082       -0.1703293617
 H          2.4715750750       -2.4619711709       -0.1148676724
 H          3.0041817710       -0.1571742570        2.1233614026
 H          6.7680551642       -0.0201485016        0.0689993048
 H          3.0944648634        0.1591824195       -2.1406931035
 H          2.4753022227        2.4717533669        0.0212932523
 H          1.2372249706        4.5857477692        0.0552612286
 H         -1.2296767651        4.5879745903        0.0374345908
 H         -2.4710031681        2.4766743166       -0.0058436179
 H         -3.0947318197       -0.1827879742       -2.1392523687
