85
 energy: -99.203340102277 gnorm: 0.000029377766 xtb: 6.7.1 (edcfbbe)
C           -0.05602477039357        4.46159873413036        1.10358963539001
C           -0.83097011787063        4.02850920550184       -0.14698452978034
C           -2.06268651475492        4.91223095892031       -0.32968800349882
C           -1.15390589525732        2.55865613814957       -0.06338540386694
C           -2.34606384414440        2.04695373386889        0.23052906661472
C           -2.59125260394164        0.61255214907125        0.25867534246205
C           -3.92012252648971        0.26024469787713        0.90618928382696
C           -5.06517868252823        0.27170792067452       -0.11129117875713
C           -3.93929612655682       -1.03517650013273        1.71613728420827
C           -1.70867005907300       -0.24031342152351       -0.29709479615252
C           -2.06405063276170       -1.66041959906375       -0.52490484704067
C           -2.94756742334041       -1.99921520867638       -1.54697240839052
C           -3.29386340155747       -3.31785507223042       -1.78031616274871
C           -2.76560433600379       -4.32634027965633       -0.99303075045456
C           -1.90550629672422       -4.00154779524629        0.04104931894412
C           -1.56353631634022       -2.68165907160440        0.27405762000810
C           -0.35774529799988        0.24339620748479       -0.81906989455114
C           -0.32178965299898        0.34523690895098       -2.37240373932992
C           -1.42575458830003        1.25402964346507       -2.91482489908128
C           -0.35674636977945       -0.98920348688935       -3.11997236298621
P            0.96152182765642       -1.07613093954457       -0.32151459110688
C            2.56470355730420       -0.51530102847262       -1.15332534843010
C            3.11360839809215        0.91794247373898       -1.05312324710830
C            4.64391267536147        0.93412365207046       -1.14817238601328
C            5.11867231719822       -0.07754420142748       -2.18452771732513
C            4.81459672278198       -1.50723205035272       -1.71539694787478
C            3.63131391614848       -1.53651993112083       -0.74301891233725
C            1.19348127644133       -0.82795953294233        1.54894616673030
C            1.53743668798938       -2.20856652240254        2.12798530671886
C            1.15710520957093       -2.26623280529075        3.61074989627820
C            1.39462368411719       -0.90941758581256        4.28545133906826
C            2.54825662604451       -0.18742023841476        3.59940295072383
C            2.19580862881128        0.17217917307931        2.14387496122379
C           -0.00078159471931        1.61061217809570       -0.21489705239143
H           -0.65326440116718        4.27880985707296        1.99445516460942
H            0.17694973514355        5.52311128344460        1.05459191733703
H            0.87707019619648        3.91068446085466        1.19301422747340
H           -0.17589342096585        4.17715770692153       -1.01613810596144
H           -2.65744462167964        4.57274060927837       -1.17471462830163
H           -2.68321672433782        4.90054898878141        0.56294556295302
H           -1.75687206342382        5.93997195867989       -0.51448435882036
H           -3.19962040992407        2.67970056276031        0.41936322680760
H           -4.11602665528887        1.07314426608012        1.61842161566090
H           -5.02697871708816        1.17108473656693       -0.72302356039170
H           -6.02325295801916        0.24604979993096        0.40458134242986
H           -5.00621325435103       -0.59631502114952       -0.76147559455679
H           -4.81771303240355       -1.04304234076159        2.35969481555869
H           -3.05502430377061       -1.10723685708385        2.34506922179538
H           -3.98324740689385       -1.91099261364947        1.07684259976330
H           -3.36946352979373       -1.22097880411289       -2.16713647507594
H           -3.98052694545369       -3.55858857797108       -2.57977950776268
H           -3.03297663325759       -5.35653112301165       -1.17742093674292
H           -1.50519544513903       -4.77905545199753        0.67593856944331
H           -0.94214567132032       -2.43379251523816        1.11825768595874
H            0.63568489989060        0.82220019688131       -2.61324319357884
H           -1.39279669664395        1.25969002352055       -4.00303103679914
H           -2.40441495757560        0.90073276484822       -2.60134231923891
H           -1.30780315989442        2.27478046357596       -2.56281777322267
H            0.25112475735289       -1.74167901421843       -2.62010397200654
H            0.02797669515197       -0.85023063503880       -4.12950832756955
H           -1.36657294447212       -1.37589318166410       -3.19534255723902
H            2.34808269368305       -0.71966071941173       -2.21043803251796
H            2.81343447048197        1.40660438234449       -0.12877398444278
H            2.71383165986803        1.50869411989424       -1.88125779043991
H            5.09089091424426        0.69612409028576       -0.18087628922334
H            4.97548317685308        1.93844475014959       -1.42086469468536
H            4.60651274112518        0.12491321487717       -3.12768025427043
H            6.18908419304196        0.03762842385182       -2.36337585465881
H            4.59419057549734       -2.13362584088927       -2.58170991377675
H            5.69015330845707       -1.93234353860153       -1.22022110717331
H            3.19133564830997       -2.53753783467919       -0.73039266435914
H            3.98084527676438       -1.32581989226192        0.26784118538331
H            0.18123810201109       -0.56362447149935        1.88767552826900
H            1.02988337137538       -3.00585511482626        1.58116724854821
H            2.60792840961008       -2.38284998500322        2.00962062423433
H            0.10634524697534       -2.54580722461249        3.71566273407210
H            1.75108866977456       -3.03800076359034        4.10445142546275
H            0.49744866162426       -0.29020881703003        4.22023456979939
H            1.61572529527452       -1.05045705568094        5.34485890866095
H            3.42825560706451       -0.83323858658017        3.62622738802316
H            2.79932975924824        0.72473324026657        4.14469443503424
H            3.11783934992755        0.17920581560484        1.56558799330205
H            1.78400758465746        1.18340788774388        2.12810957008059
H            0.39985337023756        1.45727043542777        0.78861477391994
H            0.77714510707502        2.08001543665156       -0.81549139479362
