85
 energy: -99.153505324578 gnorm: 0.000082980560 xtb: 6.7.1 (edcfbbe)
C           -0.50328957341262        4.74088349885933        1.36497155684336
C           -0.96856884135007        3.47650852439677        2.10161837801054
C            0.02750640328981        3.13006804500924        3.21428293964407
C           -1.17341062273710        2.32055219701647        1.16472249939540
C           -2.45439744175515        1.88001860016090        0.83579626442133
C           -2.69220276075697        0.80659317425734        0.01448013321079
C           -4.10897459263709        0.49104313993249       -0.41505684699890
C           -5.07432449687157        0.43641723318323        0.77512219747730
C           -4.62879447668678        1.52006183104907       -1.42804649154742
C           -1.56560151225183        0.02338806852388       -0.51846828661294
C           -1.76706020675754       -1.36212842924293       -0.78036686029698
C           -1.11954336358831       -2.09624634741790       -1.80012472777809
C           -1.35252306043281       -3.44233075367037       -1.97945458815957
C           -2.23395020741258       -4.13358232771300       -1.16116674886614
C           -2.89201601030602       -3.43986334836534       -0.15171685690502
C           -2.67331745525770       -2.09658200406821        0.03061119661502
C           -0.23882125380758        0.73193436803211       -0.64028689613199
C           -0.12575195456204        1.62886017617726       -1.91264373113064
C           -1.17181933597603        2.73837912287604       -1.96448503171967
C           -0.17485075317347        0.84198946229045       -3.21706541413805
P            1.16932942615991       -0.60364150988364       -0.71090536760682
C            2.75136168626074        0.45024093294622       -0.82657378007613
C            3.51482036862280        0.84538377833008        0.43554916097982
C            4.69727149542103        1.74086979930206        0.06274667956582
C            5.64029136190872        1.01923722211660       -0.89411833274978
C            4.89016416468612        0.59016666554647       -2.15082776625865
C            3.69601338391216       -0.28576350569863       -1.78448671528380
C            1.33639203911104       -1.26291844265254        1.05493814623693
C            0.04059277582761       -1.70386624466308        1.72720722491789
C            0.33867145402092       -2.23646073912079        3.12756506982100
C            1.28000114546156       -3.43387193330567        3.05001514124088
C            2.56827618718657       -3.04737749735358        2.33113398409411
C            2.26009844325937       -2.48048170915313        0.94840681347383
C            0.01395602558737        1.62351026035881        0.60022443100320
H           -0.37787255054484        5.55925235573968        2.07074851158777
H           -1.23680319846829        5.04086160003832        0.61950259223732
H            0.44897146727387        4.57173736847242        0.86715377458223
H           -1.93358369366122        3.70297521928843        2.57004376736804
H            1.02872630825917        2.99698168186878        2.81150159760599
H            0.06141026973315        3.93244208008609        3.94816791864819
H           -0.27080409895697        2.21412075933308        3.72002489403630
H           -3.29056740958123        2.44825920538166        1.21901837749621
H           -4.11871588435847       -0.48357515701073       -0.91111749076814
H           -4.67808145603163       -0.18136885733843        1.57767897439184
H           -6.02692787727622        0.01672755939661        0.45841559845811
H           -5.26042934826307        1.43073107677781        1.17318933720815
H           -5.68127896561205        1.33499898488031       -1.63420642916095
H           -4.08570029691256        1.44593655168660       -2.36765717555609
H           -4.52524800325408        2.53156308612674       -1.04100439979545
H           -0.48195195269367       -1.59281170636363       -2.50318171088530
H           -0.84484978274871       -3.96242139615402       -2.77963110069788
H           -2.40862626700590       -5.18899614858831       -1.30625254767833
H           -3.57283361038711       -3.96319495847514        0.50529191360594
H           -3.14087432293882       -1.59816225002551        0.86509992709069
H            0.84830811129501        2.12854282143567       -1.87001092256264
H           -0.96172860508326        3.39028585151630       -2.81145781841503
H           -2.16492047867962        2.32276342913889       -2.08804185121106
H           -1.16163830921568        3.33886574882220       -1.06078072836737
H           -0.03322609254303        1.51872245090992       -4.05845410690616
H           -1.13768764727249        0.35062464663430       -3.33262205587898
H            0.62054976739310        0.09852027011439       -3.24772591440082
H            2.45606856175637        1.37534819811223       -1.33283779347343
H            3.90007249433625       -0.04197166296246        0.94085428098787
H            2.86929586933976        1.38538122911737        1.13107250760047
H            5.23600836700149        2.03053440133878        0.96829936921728
H            4.32917543805555        2.65437492428153       -0.41202415738604
H            6.47422666625064        1.67251410636566       -1.15993756828306
H            6.05179633507827        0.13645809035110       -0.39876423601839
H            4.53860408774592        1.47750680388046       -2.68369435424930
H            5.56032835082899        0.04425601024982       -2.81842793783204
H            3.15181994910726       -0.56672172065508       -2.69001852321557
H            4.05375664217196       -1.20738943979393       -1.32015063693308
H            1.82001315203218       -0.51652134693785        1.69365706454000
H           -0.67084814294662       -0.87850270390430        1.79242824356249
H           -0.42199521787753       -2.49740857793387        1.13965827845855
H            0.79832157687515       -1.44943808225564        3.73218361033874
H           -0.59474127477526       -2.52788122460964        3.61400970894344
H            1.50704023607802       -3.80008368177955        4.05383736701972
H            0.78850009099281       -4.24007692651717        2.50079401849458
H            3.21987585280257       -3.91919606934374        2.23777598708597
H            3.10024147574697       -2.29560814718007        2.92098823861162
H            1.76793507889813       -3.24235802625945        0.33827142150094
H            3.19274340550259       -2.21143279405761        0.44809419650495
H            0.42093552691304        0.98762510648834        1.39225423742064
H            0.78951785210025        2.35608874662816        0.35820887047608
