85
 energy: -99.229695277309 gnorm: 0.000047404227 xtb: 6.7.1 (edcfbbe)
C           -1.24269594114909        4.74002877840496        0.21905667970795
C           -1.01115316208699        3.90777655666304       -1.04520115749080
C           -1.95780153763483        4.35331120941523       -2.16190706170956
C           -1.16909802975903        2.43480382211424       -0.74820960564210
C           -2.31135707115683        1.90024950611447       -0.32012979478954
C           -2.45409787595037        0.48957833069517       -0.02303476740098
C           -3.74908931064399        0.07863872784129        0.64495661634098
C           -3.88402205407780        0.77775101756519        2.00092743096892
C           -4.96388713141082        0.37566937575052       -0.23714526040239
C           -1.46397756740868       -0.38342591666512       -0.29712442533125
C           -1.71489814444433       -1.83611430330799       -0.12573414303882
C           -2.68430226535090       -2.45357237633030       -0.92054098342113
C           -2.96909737631097       -3.79932390407030       -0.79473849548431
C           -2.29629973395073       -4.56747593359109        0.14071979190985
C           -1.35411875156019       -3.96703546311061        0.95499743694798
C           -1.07222970668629       -2.61778444820650        0.82705830785406
C           -0.14367319890272        0.06670839015837       -0.91036935484909
C           -0.08190299241956       -0.36867363458772       -2.40685424263597
C           -1.29813610511637        0.13402696018882       -3.18560947465632
C            0.11143927228105       -1.86404046154746       -2.64639672935123
P            1.26878333583227       -0.82357249262857        0.05201560544520
C            2.82567355018976       -0.26465202885814       -0.88577384528456
C            3.56250080968801        1.00921332466336       -0.47862416451047
C            4.72948285598195        1.25804196383900       -1.43525102640682
C            5.70222348175970        0.08378740001120       -1.42050445389610
C            4.97814409912130       -1.20567178617353       -1.79349092635688
C            3.80286685873916       -1.44597340921823       -0.85118284290922
C            1.42160084195312        0.18117416530657        1.65170201646004
C            0.11224538153696        0.48142789814948        2.37962306293137
C            0.39938630119825        1.26816789650758        3.65813732343104
C            1.31969041467153        0.47756303105532        4.58259974236934
C            2.62066578880111        0.13389080953254        3.86440243531268
C            2.33339022539431       -0.63146669370087        2.57600980439224
C            0.06672841634534        1.59607580679903       -0.85371559744379
H           -1.05894986391076        5.79348486863325        0.01835809635495
H           -0.57415521878522        4.41743426765400        1.01449858743355
H           -2.26601612249009        4.63005198209893        0.56840913339902
H            0.01692018774324        4.08563375506023       -1.38188910096529
H           -1.77573085202674        3.77997578707397       -3.06858501296236
H           -2.99413869656150        4.20761422404229       -1.86851704792081
H           -1.80835348989762        5.40756402647564       -2.38560119964888
H           -3.18528570410513        2.52042411094607       -0.19658736743041
H           -3.72337277466190       -0.99856111877902        0.83161379474969
H           -3.92208008777505        1.85847325239725        1.88681845036168
H           -3.03703336848366        0.53034722739789        2.63692138999176
H           -4.79576961337492        0.45403248014078        2.49878183838071
H           -4.85558722306869       -0.09716000244306       -1.21062440001109
H           -5.09191326483698        1.44430818167013       -0.39094140867038
H           -5.86710620456672       -0.00895855352630        0.23207504267619
H           -3.22275751702563       -1.86713636652458       -1.65112172418998
H           -3.72006585315466       -4.24966382869090       -1.42815384715037
H           -2.51368411581800       -5.62081270048372        0.23937853349499
H           -0.83602255407148       -4.55010648531124        1.70265704500848
H           -0.35411104852188       -2.17111306380068        1.49596919666085
H            0.79057428550971        0.13522659197615       -2.84141226598084
H           -1.41118196686225        1.20978440300947       -3.08320773965219
H           -1.18113647942882       -0.10317378415278       -4.24162321711370
H           -2.20961201357780       -0.33483663804603       -2.82935891633034
H            0.35249701695163       -2.03536731712273       -3.69460226316690
H           -0.78314763437128       -2.42823812368034       -2.40637246277890
H            0.92959335273232       -2.24940751357486       -2.03962796890490
H            2.50732930214859       -0.14869907251603       -1.92717669133969
H            3.96000980526057        0.90870505857507        0.53351859111302
H            2.89750423193489        1.87406816890030       -0.50566792519125
H            5.24902956876638        2.17522175040214       -1.14696023154018
H            4.34546535246772        1.39744431424056       -2.44916547929433
H            6.52182611238323        0.26922821331838       -2.11824932298540
H            6.13124147411966       -0.01800289778483       -0.42059991658226
H            4.60932066475411       -1.13088668174369       -2.81963274610425
H            5.66980107331614       -2.04977676813141       -1.74817048778049
H            3.28064288233433       -2.36306552177251       -1.13647240442074
H            4.17942556262304       -1.58741520230074        0.16457891568211
H            1.91647736866305        1.13604276486512        1.44368270666418
H           -0.56187006883140        1.05573381120014        1.74504833646277
H           -0.39532646414042       -0.44664302103879        2.64801684199784
H            0.87258481526846        2.22027989912740        3.40274435298451
H           -0.54007581236960        1.49174871722540        4.16898685025895
H            1.53200188584940        1.05557694652223        5.48482630831878
H            0.81970288242817       -0.44522466898598        4.88634575414572
H            3.26156351961125       -0.46387972771374        4.51660388874277
H            3.15635785614164        1.05682598350400        3.62587779393686
H            1.84966400555872       -1.58223940006341        2.81582385235650
H            3.27332180839729       -0.86323531967695        2.06987246057343
H            0.68495409909282        1.86604465066449        0.00647130635054
H            0.62987166111653        1.90560818629914       -1.73964741811888
