85
 energy: -99.153543873191 gnorm: 0.000046362486 xtb: 6.7.1 (edcfbbe)
C           -0.88812559513024        4.72545180926883       -0.61073732932033
C           -1.06153799671647        3.65610330019149       -1.70188630672571
C           -2.26863144288675        3.99901802626384       -2.57843142856938
C           -1.17159412632776        2.29495632393714       -1.08265562616771
C           -2.33176272801429        1.85567899695953       -0.41813416915798
C           -2.44509915488073        0.59591285210312        0.10020294609636
C           -3.61221505632694        0.28655002255137        1.01226441016205
C           -3.48960096995478        1.06995574778032        2.32573539146256
C           -4.96144707719824        0.61650782255576        0.36170145804267
C           -1.42941750005093       -0.42812115690713       -0.19381408071112
C           -1.82223535815081       -1.81220058278364       -0.08944008699458
C           -3.08869420241301       -2.21883581400039       -0.56192978733988
C           -3.50612650477142       -3.52787657815464       -0.48033028427482
C           -2.69218115913735       -4.49265933560803        0.09649612958466
C           -1.44564940907291       -4.11803937979811        0.57616620428181
C           -1.01727712862278       -2.81237966189313        0.48103317818749
C           -0.13717116586228       -0.02348178090057       -0.83568068275497
C           -0.10787523977848       -0.51629580689385       -2.32513443765332
C           -1.34010121695509       -0.04444348512014       -3.09314190912098
C            0.05335160204544       -2.02213076292858       -2.50692914523219
P            1.40990873538216       -0.82806284451639        0.02947013408770
C            2.87038304672702       -0.02240368124578       -0.88481264975343
C            3.51818007688815        1.24359875474298       -0.32900762062300
C            4.63554972055616        1.70602267811182       -1.26495005525328
C            5.69612231526826        0.62093165382462       -1.41715341803223
C            5.06452146587771       -0.66234791293584       -1.94652087876854
C            3.93416160488026       -1.11743913072122       -1.02886063266849
C            1.49003699630322        0.03841941376428        1.70370178113163
C            0.16110698049864        0.04588571730299        2.45151175997066
C            0.33269555547930        0.70537546593032        3.81882133995554
C            1.37748206660986       -0.03609649022617        4.64686138832887
C            2.70735500455292       -0.08210767112755        3.90185230481264
C            2.52603407512904       -0.72798436537571        2.53176005832658
C            0.06322419584641        1.50298011071466       -0.84034332489858
H           -0.78536016652775        5.71118963428946       -1.05933287100623
H           -0.00115133357298        4.52177711102098       -0.01501026997059
H           -1.75163049911604        4.73353319916315        0.05016587537563
H           -0.16476017106538        3.67575250496870       -2.33407486919432
H           -2.41531323992548        3.24101159497564       -3.34492425752780
H           -3.17617549410876        4.06435876703893       -1.98430897236952
H           -2.11341005259283        4.95814508110571       -3.06807451684654
H           -3.14461121758161        2.55496270934102       -0.28994374276596
H           -3.60142753222672       -0.77722044659490        1.26270803567555
H           -3.41751113386849        2.13834906800439        2.13381588450893
H           -2.60779851657489        0.75907905329212        2.87877950796117
H           -4.36395925457553        0.88910867440723        2.94785033300254
H           -5.03530812076817        0.19224175773420       -0.63657665024740
H           -5.10374834882440        1.69145770554624        0.28242429694713
H           -5.77137347181955        0.21340701542391        0.96603350740280
H           -3.72229693793417       -1.49360377029983       -1.04911578523867
H           -4.47443660325827       -3.80406832863728       -0.87390075302382
H           -3.02339369878980       -5.51763855324293        0.16847299310145
H           -0.80266833786867       -4.85573639830104        1.03495698298888
H           -0.05105686994233       -2.54796921823523        0.88279904901362
H            0.76259169985771       -0.04288207243345       -2.79327850886644
H           -1.48398448280471        1.02736190497106       -2.97535174354205
H           -1.21975890979971       -0.26520666847569       -4.15227323435861
H           -2.23182091459894       -0.55105049122335       -2.73484734175119
H            0.24160257674988       -2.23680515861657       -3.55772013272592
H           -0.84177029685147       -2.55723892659264       -2.20655502821346
H            0.89277220629811       -2.39869297881615       -1.92502957809477
H            2.50694890739037        0.19910114550031       -1.89459415085178
H            3.94956491349598        1.04611500909738        0.65410162950570
H            2.78810101885112        2.04864046990886       -0.22783190199212
H            5.08950876333934        2.61780538447506       -0.86919275686889
H            4.21551720708170        1.94220358717161       -2.24624264240265
H            6.48235091447859        0.95953630539419       -2.09542820144043
H            6.15495496451198        0.42482527732108       -0.44497507029681
H            4.66662461996308       -0.48360537475963       -2.94874802792098
H            5.81976479731543       -1.44756274504313       -2.02279490672512
H            3.47315610399051       -2.02318909586308       -1.43149875437159
H            4.34301899997016       -1.36679566968855       -0.04677017598135
H            1.82955816193805        1.07331147995642        1.59056983913702
H           -0.58962220845394        0.58717132112958        1.87348017524868
H           -0.19717139339986       -0.97673406791994        2.58862422962561
H            0.64571161056948        1.74454002764991        3.68510130090578
H           -0.62229094996756        0.71269853418000        4.34955961794390
H            1.50663175341643        0.45582873265574        5.61350719975927
H            1.03225069508890       -1.05573505883533        4.83292680385383
H            3.44245876396023       -0.64376161317476        4.48275030755523
H            3.08799808233501        0.93517941800606        3.77616432710089
H            2.18900171580612       -1.76070480551054        2.65684319296789
H            3.48468449428771       -0.75835164130738        2.00893141624845
H            0.44182531733536        1.79655905989317        0.14834668365104
H            0.83012943598627        1.77121919825655       -1.56967512540798
