72
 energy: -98.541120071235 gnorm: 0.000090028172 xtb: 6.7.1 (edcfbbe)
C            3.11628606965706        3.35575522403447        1.43257628743449
C            1.92925520985206        2.46890707300885        1.23648457135395
C            1.80773059358977        1.26720823520031        1.92315573818122
C            0.72122398111472        0.43316347513175        1.74010542757345
C            0.60441043107023       -0.78038065753013        2.61151026080806
C           -0.27446102284205        0.75522498627909        0.77637663040083
B           -1.29199604714244       -0.31907913488708        0.29033136788320
C           -0.85566581430595       -1.72005471286976       -0.11828380213015
C           -1.75853692683744       -2.81796985166215       -0.08552220996191
C           -1.37122003995349       -4.11524730794789       -0.26732495611725
C           -0.02786609136429       -4.42163600621579       -0.53779894763518
C            0.88605964103542       -3.39083089906633       -0.62486114486071
C            0.50590097972290       -2.06482395403418       -0.46242331411072
N            1.50289523330268       -1.09171732960855       -0.58816700533695
C            2.71226274314414       -1.10393907031855        0.07424777363569
C            3.18418054659574       -1.98673295259488        1.03753997983759
C            4.43775968259650       -1.75359753268410        1.57070815259889
C            5.21216994605394       -0.67045090390370        1.16080601387957
C            4.74947855527597        0.21244292415991        0.20150569603638
C            3.49448641518733       -0.00005704872398       -0.34535102910583
C            2.71991923191681        0.68812310907075       -1.34158031895967
C            2.95914193420355        1.79449365978149       -2.14125185997071
C            2.00189968643277        2.15816521659554       -3.07011529100612
C            0.83368486283548        1.41655623818927       -3.22326822273001
C            0.57391496534035        0.31136195537332       -2.43525139149743
C            1.50979306261249       -0.03132842219379       -1.47189405002596
C           -2.84431418510347        0.03386682196079        0.24494240177386
C           -3.46062390940479        0.56777589617826        1.38993096117969
C           -2.69298920728953        0.77741686487092        2.66087499170346
C           -4.81334597617198        0.86552045525464        1.38289102589034
C           -5.60090804992075        0.65504668745188        0.25975134899517
C           -7.06529390062413        0.97637229053625        0.28288910755991
C           -4.99114419925547        0.13197138853371       -0.86625325169231
C           -3.63585702270379       -0.17627351334577       -0.89325033425465
C           -3.07944866212080       -0.66345081715437       -2.20112838223714
C           -0.21877422265127        2.05191924568337        0.19858726707713
C           -1.32632711777269        2.53456367213446       -0.68414992732568
C            0.87680460304281        2.85940176930510        0.40610501692135
H            2.89464628127585        4.12962749056667        2.16958140532015
H            3.38008261119266        3.85079881787724        0.49989081821262
H            3.96990715777231        2.78281530700523        1.78771359911123
H            2.58171635928056        0.98054564437521        2.62266127110803
H            0.18522064177079       -1.62679947025970        2.07446680387231
H            1.57504257450826       -1.05510101428818        3.01860874044858
H           -0.05941555253909       -0.56118656437679        3.44919655713388
H           -2.79400494565732       -2.59916604788958        0.13424238656062
H           -2.09652930800115       -4.91348259126942       -0.20303758236402
H            0.27958848414883       -5.44110457066348       -0.70908230327232
H            1.91443452973188       -3.60090095330143       -0.88750177505959
H            2.59047852160433       -2.82651227710980        1.36387043246634
H            4.82605270869427       -2.42561126980803        2.32190108643032
H            6.18754096927237       -0.52241358530866        1.60039028619388
H            5.35054803521405        1.05128002768991       -0.11560654525225
H            3.87862173006279        2.35210880170549       -2.04483859985249
H            2.16788829284928        3.01859322717436       -3.70145176297351
H            0.11955015317720        1.70817236737597       -3.97924521670420
H           -0.32040822794916       -0.27379679081756       -2.56675735596777
H           -1.84132054086580        1.43492748816049        2.49582690941141
H           -2.31356203853968       -0.17600017059213        3.02577333406681
H           -3.32755654392595        1.21529088039517        3.42840917787746
H           -5.27135020276585        1.25915321366792        2.28061716089421
H           -7.23212172152111        1.97845989843627        0.67544056191456
H           -7.59529611961712        0.27400937877982        0.92700206571130
H           -7.49254301038710        0.91572580449492       -0.71518328963046
H           -5.57838201196865       -0.02897529362659       -1.76060223095827
H           -2.24146657752194       -1.33696720274064       -2.05204070975168
H           -3.84629413764023       -1.18610686820492       -2.76947922395081
H           -2.74349881741287        0.18485074097087       -2.80108484375426
H           -2.23329089457850        2.69847002245881       -0.10305222387279
H           -1.05131431135114        3.46685959377788       -1.17222264145995
H           -1.55521105720859        1.79107973224610       -1.44303739073527
H            0.93375676729787        3.81719311867356       -0.09303093817369
