72
 energy: -98.541120422563 gnorm: 0.000169169764 xtb: 6.7.1 (edcfbbe)
C            3.15160236732679        3.38712297845392        1.29782850329587
C            1.95409983642296        2.50770795482379        1.13460750637362
C            1.81003233186383        1.34558306269327        1.88278066853461
C            0.71433089451860        0.51710094172989        1.73345123122624
C            0.57403496925003       -0.64627066098665        2.66784781161766
C           -0.26840560892111        0.80044709607612        0.74469320478970
B           -1.29728544141830       -0.28373167198926        0.30704417889964
C           -0.87844226150703       -1.71033472131976       -0.02390655586661
C           -1.79722802360657       -2.79226242047866        0.05868122255937
C           -1.42684112092092       -4.10255226646462       -0.05098626595066
C           -0.08588488595698       -4.44119364683998       -0.29316501332590
C            0.84325498327399       -3.42905033993699       -0.42668631732069
C            0.48062613134355       -2.09128734399667       -0.33797486296739
N            1.49191336438391       -1.13973753272307       -0.50689113461570
C            2.69578892455165       -1.13204895282234        0.16532055257298
C            3.14901096498760       -1.96868505725291        1.17757390835460
C            4.40135855891242       -1.72329417319910        1.70820564929335
C            5.19287719925212       -0.67320625151902        1.24810846742760
C            4.74911401342347        0.16326169442624        0.23949245345257
C            3.49551091217918       -0.06182957623641       -0.30547529126743
C            2.73770114966025        0.58227064750013       -1.34318373191707
C            2.99716536658395        1.64202497481199       -2.19774434848071
C            2.05202267320491        1.96767181241978       -3.15274732869985
C            0.87585022908787        1.23322837839741       -3.27676125074398
C            0.59572412486017        0.17459645123312       -2.43369382856500
C            1.51950258619902       -0.12800958557088       -1.44553588336641
C           -2.84392233314670        0.08845244304590        0.23108642422042
C           -3.45918097294661        0.68997217598524        1.34239795471557
C           -2.69726362617365        0.94916901287730        2.60762457887704
C           -4.80594391526575        1.01273464910269        1.30820392237929
C           -5.58802163779808        0.76077988559865        0.19014477618033
C           -7.04724193428333        1.10551281924195        0.18237234562703
C           -4.97958684549622        0.16822247759478       -0.90206748319105
C           -3.63054536051735       -0.16637421409345       -0.90141639153178
C           -3.07326133060072       -0.73124192628905       -2.17729189650984
C           -0.18979033834834        2.06390911398684        0.09965570861593
C           -1.28283894988663        2.51352407096229       -0.81782285668139
C            0.91474578551994        2.86710930354886        0.27465952341619
H            4.00772641301850        2.80973630490664        1.63994449487709
H            2.95191657135964        4.16704055908714        2.03483473770501
H            3.39989299425188        3.87346930816569        0.35656632424071
H            2.57376802842458        1.08655073284128        2.60397089999063
H            1.54148632745166       -0.92735736873210        3.07820426905445
H           -0.07201606677833       -0.36410125777853        3.50073898276404
H            0.12426514396818       -1.50660792087631        2.18012293913946
H           -2.83120294405879       -2.54796911216470        0.25773964285875
H           -2.16398065825366       -4.88616713035057        0.04891426375316
H            0.20851093201612       -5.47239671466726       -0.40780982484607
H            1.87054757277190       -3.66692297350913       -0.66904291627016
H            2.54212077489536       -2.78282910906981        1.54237963198291
H            4.77512802674334       -2.35929781409772        2.49717137133561
H            6.16668853934013       -0.51437172255320        1.68737282043352
H            5.36380714579433        0.97590510546255       -0.11732225952547
H            3.92253647912251        2.19307190923946       -2.12245040532165
H            2.23379898406187        2.79155494185936       -3.82702389398311
H            0.17158025195317        1.49313128186593       -4.05328771947388
H           -0.30485116154444       -0.40576358541943       -2.54182121172329
H           -3.33283389513783        1.42461380609059        3.35160296104789
H           -1.84001786611851        1.59309418057211        2.41906324478266
H           -2.32646092905811        0.01006494976348        3.01564200909811
H           -5.26293304117365        1.46032706639823        2.18081753277947
H           -7.60965233806271        0.37235330580435        0.76200632010200
H           -7.43986957190221        1.11136698696298       -0.83175189162531
H           -7.21435482090635        2.08360024572341        0.63023588507531
H           -5.56317310625214       -0.02747425790667       -1.79187059547019
H           -3.84526786330032       -1.26923325380632       -2.72395470489428
H           -2.71749831768810        0.07831455729924       -2.81796548496456
H           -2.24880126273506       -1.41079488516649       -1.98612810825800
H           -2.19252076984091        2.71993472074500       -0.25475820564179
H           -0.99095855630699        3.41486673733071       -1.35205993272910
H           -1.51528874060163        1.73382164765293       -1.53832415267437
H            0.98882510443770        3.79610222652251       -0.27418395351974
