  85
  -138.591087210000       0.203715538416422      !
 F         -2.4697720756        3.8424973399       -1.6222463631
 C         -2.2657742895        4.3819385689       -0.4111038396
 F         -1.4069111482        5.4031210927       -0.5949717862
 F         -3.4364907063        4.9493415460       -0.0528728951
 C         -1.7771056348        3.3995860812        0.6093565809
 C         -1.3043075171        3.8876238458        1.8275419612
 C         -0.8521836613        2.9838931589        2.7808356856
 C         -0.8712935565        1.6299746214        2.5317168982
 C         -1.3464977047        1.1395403064        1.3022796372
 N         -1.3796893900       -0.2226936703        1.0582173470
 C         -0.3297516469       -1.1546815496        1.2497203112
 C          1.0200512836       -0.9151440043        1.5498529024
 C          1.6615841836        0.3522539531        1.5846299574
 C          3.0048480092        0.4502913711        1.8238142330
 C          3.7977416855       -0.6893104087        2.0158834632
 O          5.1291785645       -0.4794348064        2.2166588966
 C          6.0328302296       -1.4780266196        1.7869454873
 C          5.9048930951       -1.7232882373        0.2807031341
 C          6.1971303596       -0.4452946964       -0.5079678530
 C          5.4337038005       -0.3893068297       -1.8374972940
 N          4.0374581755       -0.0924360752       -1.6568236584
 C          2.9815410371       -0.9692105436       -1.7514771109
 C          2.9752167416       -2.3441627801       -1.9456905838
 C          1.7524848724       -2.9831096321       -2.0279869438
 C          0.5542804575       -2.2807524772       -1.9359066762
 C          0.5506779193       -0.9148092674       -1.7345255388
 C          1.7656182072       -0.2536441543       -1.6296767131
 C          2.1221242627        1.1215672774       -1.4310750954
 C          1.3842000560        2.2826790438       -1.2472416163
 C          2.0570256194        3.4749588590       -1.0701798152
 C          3.4493950104        3.5177219198       -1.0905250716
 C          4.2058257385        2.3770951033       -1.2848242619
 C          3.5352821858        1.1729856358       -1.4513469677
 C          3.1831252087       -1.9523226934        1.9801693131
 C          1.8408605341       -2.0595838936        1.7570351035
 N         -0.7677814766       -2.3937517153        0.9628437316
 C         -2.0021911572       -2.3063309073        0.5066977228
 C         -2.7466728035       -3.5021441246        0.1796996785
 C         -2.0354245587       -4.6380431482       -0.2249548352
 C         -2.6979730118       -5.8060031978       -0.5370170896
 C         -4.0807428804       -5.8714115504       -0.4362721487
 C         -4.7916082577       -4.7633704001       -0.0021925967
 C         -4.1368994364       -3.5875170327        0.3071412662
 C         -2.4371323826       -0.9292279299        0.5105217864
 C         -3.6853042583       -0.3798708056        0.1028559242
 C         -4.3306997091       -0.8918717978       -1.0448846151
 C         -5.5246688721       -0.3628973049       -1.4750033254
 C         -6.1254574528        0.6820062945       -0.7811742450
 C         -5.5146510604        1.1856392674        0.3618606447
 C         -4.3153688556        0.6742945265        0.7998914044
 C         -1.8088122419        2.0467602950        0.3390906640
 H         -1.2937687177        4.9484895464        2.0169043436
 H         -0.4916396555        3.3478464585        3.7304134257
 H         -0.5334956026        0.9277814646        3.2787647207
 H          1.1121923500        1.2513986609        1.3703579613
 H          3.4872969810        1.4154647083        1.8317443718
 H          5.8890587005       -2.4119664454        2.3438952531
 H          7.0204836991       -1.0784168982        2.0309915896
 H          6.5823491779       -2.5260991619       -0.0130658353
 H          4.8816049555       -2.0450488115        0.0774495788
 H          5.8961976839        0.4150244137        0.0928801758
 H          7.2674267208       -0.3625650183       -0.7035640132
 H          5.5250359969       -1.3415726079       -2.3650379321
 H          5.8687026508        0.3916892488       -2.4707433969
 H          3.8916678207       -2.9087551019       -2.0390762857
 H          1.7270429065       -4.0523130698       -2.1790306511
 H         -0.3800455517       -2.8134857659       -2.0266400075
 H         -0.3764349938       -0.3644239460       -1.6760460446
 H          0.3055607512        2.2503095620       -1.2434684303
 H          1.4999760532        4.3876146226       -0.9198100545
 H          3.9495734295        4.4652991057       -0.9544672797
 H          5.2839922646        2.4323431961       -1.3045450341
 H          3.7645502839       -2.8471709099        2.1429430287
 H          1.3615294437       -3.0242526104        1.7333394091
 H         -0.9606566840       -4.5702792691       -0.2920300461
 H         -2.1400236226       -6.6723903048       -0.8611712833
 H         -4.6001336947       -6.7853640756       -0.6835637879
 H         -5.8654029602       -4.8187590543        0.1016800793
 H         -4.6972868157       -2.7424296075        0.6759098758
 H         -3.8519035159       -1.6807182280       -1.6057715460
 H         -5.9924912020       -0.7558440557       -2.3658249920
 H         -7.0591268815        1.0983766524       -1.1263134230
 H         -5.9856532038        1.9851737089        0.9147423233
 H         -3.8756323286        1.0469180254        1.7126457105
 H         -2.1707011044        1.6894254288       -0.6125276873
  85
  -138.591081930000       0.202580498788310      !
 F         -1.4045711654        5.3681185487       -0.6908570899
 C         -2.2798922299        4.3699603588       -0.4605898676
 F         -3.4276880856        4.9709429256       -0.0842238082
 F         -2.5277027596        3.8081880506       -1.6530360262
 C         -1.7843141106        3.4011852791        0.5694360959
 C         -1.3088688744        3.9063632893        1.7797197639
 C         -0.8476831801        3.0167621247        2.7418879459
 C         -0.8612968529        1.6596857311        2.5098779985
 C         -1.3394292823        1.1519641677        1.2886378158
 N         -1.3757613390       -0.2135142682        1.0622598785
 C         -0.3272148800       -1.1486215593        1.2465775865
 C          1.0250508299       -0.9179566689        1.5419727970
 C          1.6748306535        0.3449548394        1.5869656732
 C          3.0198037280        0.4320643131        1.8206726398
 C          3.8067185157       -0.7144250679        1.9971770991
 O          5.1400480033       -0.5144480435        2.1951644087
 C          6.0362417664       -1.5183980347        1.7628943066
 C          5.9097392863       -1.7563382935        0.2553225007
 C          6.2118023808       -0.4766369478       -0.5269504994
 C          5.4447858540       -0.4055677190       -1.8537554331
 N          4.0514033846       -0.1000797213       -1.6661505012
 C          2.9885103480       -0.9681920015       -1.7620413432
 C          2.9712300028       -2.3416827130       -1.9658605925
 C          1.7435275518       -2.9714134705       -2.0440111072
 C          0.5510026737       -2.2611069436       -1.9394818889
 C          0.5584421538       -0.8964699034       -1.7300267151
 C          1.7786600415       -0.2445734288       -1.6281868807
 C          2.1464709477        1.1261681698       -1.4199864800
 C          1.4182823984        2.2909898635       -1.2210594698
 C          2.1010031121        3.4760896280       -1.0346394957
 C          3.4936556016        3.5084528396       -1.0607016137
 C          4.2403711329        2.3643323151       -1.2707457631
 C          3.5598080282        1.1671361693       -1.4466459679
 C          3.1839606865       -1.9730451161        1.9519655128
 C          1.8400320590       -2.0695131345        1.7344362580
 N         -0.7719723869       -2.3863910687        0.9627861479
 C         -2.0105007354       -2.2957735257        0.5192156439
 C         -2.7611590022       -3.4898703175        0.1991716032
 C         -2.0571364909       -4.6236871942       -0.2235921601
 C         -2.7253087546       -5.7900513518       -0.5291052327
 C         -4.1060715055       -5.8560359378       -0.4029755509
 C         -4.8089764564       -4.7502215789        0.0488690806
 C         -4.1485922322       -3.5754616414        0.3510865553
 C         -2.4414904480       -0.9180651709        0.5279688519
 C         -3.6962355294       -0.3665748796        0.1435969987
 C         -4.3635866693       -0.8763167442       -0.9923760623
 C         -5.5665148442       -0.3477169725       -1.3971164389
 C         -6.1549041601        0.6940539929       -0.6880700525
 C         -5.5213715800        1.1962795653        0.4431123010
 C         -4.3121988054        0.6863548875        0.8547297073
 C         -1.8097345107        2.0449996726        0.3161148227
 H         -1.3042402942        4.9695499536        1.9560826842
 H         -0.4860070592        3.3944719816        3.6857281172
 H         -0.5188407404        0.9679775448        3.2645622647
 H          1.1298154437        1.2499171251        1.3859706121
 H          3.5084281282        1.3940939702        1.8365584595
 H          5.8838697356       -2.4535463067        2.3155389604
 H          7.0266974899       -1.1279892336        2.0105292126
 H          6.5827478067       -2.5621001151       -0.0404920181
 H          4.8849224900       -2.0707279490        0.0486086058
 H          5.9207540131        0.3828470587        0.0799352015
 H          7.2821909026       -0.4027059722       -0.7255476150
 H          5.5277809433       -1.3545700692       -2.3885734664
 H          5.8833624561        0.3769767786       -2.4826245400
 H          3.8830995109       -2.9119183618       -2.0689950479
 H          1.7095164404       -4.0395022964       -2.2011189978
 H         -0.3876757821       -2.7866033688       -2.0271692775
 H         -0.3640876350       -0.3394987727       -1.6627388671
 H          0.3394297641        2.2667905093       -1.2118351313
 H          1.5516097258        4.3913390889       -0.8722916338
 H          4.0014935614        4.4508398743       -0.9167091567
 H          5.3188292383        2.4113539256       -1.2947600457
 H          3.7596986928       -2.8736765312        2.1026543542
 H          1.3546241012       -3.0309787820        1.7036362280
 H         -0.9837981039       -4.5550204692       -0.3096835536
 H         -2.1735709557       -6.6550100286       -0.8674992221
 H         -4.6293436420       -6.7692446360       -0.6447247060
 H         -5.8805685856       -4.8062351211        0.1730892437
 H         -4.7022423415       -2.7321883840        0.7341216748
 H         -3.8952894676       -1.6632084323       -1.5646237345
 H         -6.0521143669       -0.7387562206       -2.2791779347
 H         -7.0965507470        1.1089604017       -1.0124847051
 H         -5.9825291131        1.9932204702        1.0077867351
 H         -3.8536925208        1.0584372506        1.7584161677
 H         -2.1741122409        1.6737695831       -0.6293250691
  85
  -138.591080010000       0.202169326921698      !
 F         -3.5025500705        4.8650679403       -0.0913034466
 C         -2.2795786507        4.3828593146       -0.3968180723
 F         -2.3829009248        3.8659744729       -1.6307223858
 F         -1.4795230491        5.4599583689       -0.5069123207
 C         -1.7867899404        3.4017235019        0.6229406955
 C         -1.3235246343        3.8846528740        1.8466302728
 C         -0.8731049906        2.9769484465        2.7971757479
 C         -0.8851371825        1.6245373591        2.5401832328
 C         -1.3519688620        1.1389611826        1.3053808767
 N         -1.3765179327       -0.2217941858        1.0535827889
 C         -0.3241220552       -1.1495834057        1.2529239395
 C          1.0231276632       -0.9056064127        1.5599678442
 C          1.6613611362        0.3634747711        1.5986191171
 C          3.0043516679        0.4640491608        1.8380391388
 C          3.7998404250       -0.6742073675        2.0280735766
 O          5.1312537929       -0.4622105070        2.2254058300
 C          6.0346310327       -1.4637169199        1.8018291668
 C          5.9060261701       -1.7201371910        0.2974359195
 C          6.1948881159       -0.4467001917       -0.5000755063
 C          5.4189493200       -0.3929201929       -1.8223279276
 N          4.0244075755       -0.0937536033       -1.6311644907
 C          2.9649471941       -0.9648188626       -1.7389910715
 C          2.9535174402       -2.3390419857       -1.9376581013
 C          1.7285030982       -2.9714044579       -2.0347060515
 C          0.5330264905       -2.2633729426       -1.9514954876
 C          0.5343745785       -0.8984198265       -1.7435384793
 C          1.7515186446       -0.2439045672       -1.6246008356
 C          2.1128849699        1.1287361131       -1.4172727359
 C          1.3788297178        2.2924555419       -1.2346290745
 C          2.0558998696        3.4805389412       -1.0462782504
 C          3.4484838044        3.5168517005       -1.0551689580
 C          4.2010469164        2.3736591507       -1.2492212425
 C          3.5263024521        1.1734721376       -1.4261453282
 C          3.1875997238       -1.9383684627        1.9938034573
 C          1.8458958139       -2.0483023428        1.7694465396
 N         -0.7545667934       -2.3905336289        0.9618328629
 C         -1.9847073366       -2.3075167530        0.4940084987
 C         -2.7219330391       -3.5057943590        0.1595407996
 C         -2.0028267826       -4.6387967423       -0.2391576776
 C         -2.6584062057       -5.8089700911       -0.5577157382
 C         -4.0418188728       -5.8792424111       -0.4700386926
 C         -4.7606246481       -4.7739508860       -0.0421413938
 C         -4.1128900125       -3.5960994122        0.2741962490
 C         -2.4248871320       -0.9322048457        0.4941117967
 C         -3.6719808791       -0.3908668809        0.0721989268
 C         -4.2983644619       -0.9068797733       -1.0841073281
 C         -5.4937206649       -0.3909734736       -1.5258392884
 C         -6.1143818673        0.6443949594       -0.8352711465
 C         -5.5212522519        1.1530557696        0.3147308513
 C         -4.3203931427        0.6552090984        0.7640690395
 C         -1.8130405493        2.0500329530        0.3453922172
 H         -1.3175206401        4.9443387871        2.0423867355
 H         -0.5197340765        3.3368608209        3.7510546296
 H         -0.5480336196        0.9195116109        3.2848779910
 H          1.1098214042        1.2615317821        1.3852122060
 H          3.4850415512        1.4301217955        1.8467692559
 H          5.8917415673       -2.3934379880        2.3659884458
 H          7.0224462544       -1.0621644930        2.0419156301
 H          6.5851828749       -2.5235186867        0.0093043577
 H          4.8835119738       -2.0457379464        0.0966933251
 H          5.9035223154        0.4171661320        0.1002287032
 H          7.2633627113       -0.3688222847       -0.7072419950
 H          5.5043964768       -1.3465747245       -2.3482977758
 H          5.8498753813        0.3859260195       -2.4611847565
 H          3.8679383463       -2.9080901349       -2.0234341589
 H          1.6991339339       -4.0398432765       -2.1903640013
 H         -0.4029477582       -2.7911316470       -2.0539333623
 H         -0.3905404573       -0.3437240624       -1.6908558218
 H          0.3001516055        2.2653407379       -1.2409009714
 H          1.5021368389        4.3952020268       -0.8958316753
 H          3.9519694576        4.4613361816       -0.9101151806
 H          5.2795000566        2.4241456097       -1.2606825365
 H          3.7703937108       -2.8320842782        2.1576844715
 H          1.3686301322       -3.0139913279        1.7444490254
 H         -0.9278373719       -4.5665692827       -0.2974749481
 H         -2.0943776991       -6.6730027264       -0.8778415616
 H         -4.5556811237       -6.7947021213       -0.7231345650
 H         -5.8351430525       -4.8329812159        0.0515427465
 H         -4.6796978192       -2.7533366349        0.6383326943
 H         -3.8041056589       -1.6883751133       -1.6417488815
 H         -5.9474976015       -0.7874717008       -2.4223891993
 H         -7.0500857455        1.0493322169       -1.1881929935
 H         -6.0074139328        1.9455794419        0.8643612435
 H         -3.8934406207        1.0323098423        1.6810513943
 H         -2.1694456751        1.6970937115       -0.6100013552
  85
  -138.591054120000       0.196705745394296      !
 F         -3.5964305371        4.7034513977       -0.1862117477
 C         -2.3031160064        4.3762693586       -0.3965692339
 F         -2.2417796647        3.9051716867       -1.6522883543
 F         -1.6270073581        5.5386295783       -0.3975441092
 C         -1.7928210722        3.4061323631        0.6253332740
 C         -1.3329025198        3.8875764037        1.8501843139
 C         -0.8787689266        2.9786084142        2.7982959700
 C         -0.8862573896        1.6269328177        2.5382975215
 C         -1.3513882830        1.1422481638        1.3025445016
 N         -1.3747195751       -0.2183354641        1.0499685899
 C         -0.3226670093       -1.1453368132        1.2533245272
 C          1.0240181550       -0.9014530160        1.5627286198
 C          1.6629994808        0.3672333582        1.6023710818
 C          3.0065358772        0.4667536446        1.8396493532
 C          3.8015956179       -0.6721797301        2.0273158162
 O          5.1341511739       -0.4616856527        2.2185958753
 C          6.0334865043       -1.4678623546        1.7978589237
 C          5.9014338511       -1.7313886523        0.2948766771
 C          6.1964793160       -0.4632628095       -0.5088549103
 C          5.4194599118       -0.4113612255       -1.8305286723
 N          4.0277866224       -0.1004704754       -1.6388023245
 C          2.9597259487       -0.9608211846       -1.7471934560
 C          2.9345297217       -2.3329052296       -1.9587280998
 C          1.7031732071       -2.9527202134       -2.0563953224
 C          0.5147771365       -2.2343630484       -1.9602264872
 C          0.5299218628       -0.8716558824       -1.7389860379
 C          1.7537412089       -0.2295866963       -1.6203026358
 C          2.1289467745        1.1379332940       -1.4036404524
 C          1.4069327703        2.3069178209       -1.2068773111
 C          2.0967879976        3.4870204830       -1.0139397054
 C          3.4894917366        3.5109751166       -1.0332143521
 C          4.2299899222        2.3623392686       -1.2413444351
 C          3.5427200906        1.1696679954       -1.4211331518
 C          3.1878422870       -1.9357310354        1.9962314603
 C          1.8457654388       -2.0445918506        1.7734145079
 N         -0.7520441311       -2.3871938330        0.9636121780
 C         -1.9814947192       -2.3055993373        0.4944217409
 C         -2.7169272540       -3.5059756170        0.1626798554
 C         -4.1065421553       -3.6013731618        0.2877515370
 C         -4.7517624998       -4.7825816639       -0.0212399486
 C         -4.0317304343       -5.8854192015       -0.4536092387
 C         -2.6495394128       -5.8090736021       -0.5541096643
 C         -1.9963393187       -4.6358554767       -0.2417434212
 C         -2.4227867452       -0.9306022884        0.4914178040
 C         -3.6694131542       -0.3917871575        0.0660598593
 C         -4.2967961868       -0.9169059689       -1.0857275061
 C         -5.4903145253       -0.4016902637       -1.5331621917
 C         -6.1078095438        0.6430842267       -0.8537908835
 C         -5.5144514648        1.1602797960        0.2921969894
 C         -4.3165396045        0.6615975645        0.7484182841
 C         -1.8134757281        2.0545017348        0.3441690423
 H         -1.3313013462        4.9464357317        2.0500519357
 H         -0.5272129548        3.3374274439        3.7532491773
 H         -0.5479555246        0.9214002986        3.2819840379
 H          1.1116139966        1.2660642889        1.3919676631
 H          3.4879965692        1.4323999948        1.8473673472
 H          5.8888690236       -2.3943288162        2.3668674241
 H          7.0231351544       -1.0683370554        2.0338845419
 H          6.5760890023       -2.5397474820        0.0102186980
 H          4.8770321171       -2.0527567292        0.0964340850
 H          5.9101882296        0.4046449744        0.0880286876
 H          7.2651608943       -0.3921448094       -0.7171554854
 H          5.4969110246       -1.3686640151       -2.3510126917
 H          5.8556810192        0.3603415017       -2.4746330742
 H          3.8433081550       -2.9094262788       -2.0539910721
 H          1.6629252065       -4.0190919206       -2.2236848151
 H         -0.4265568567       -2.7524523683       -2.0634637993
 H         -0.3893238305       -0.3086828649       -1.6769532513
 H          0.3279946356        2.2904806746       -1.2059474330
 H          1.5528183338        4.4056213353       -0.8523309543
 H          4.0030021883        4.4497438361       -0.8858981043
 H          5.3086956736        2.4034468863       -1.2616548897
 H          3.7692914533       -2.8301502131        2.1610527846
 H          1.3675208257       -3.0098814037        1.7515687404
 H         -4.6737978200       -2.7600123326        0.6546981985
 H         -5.8252010351       -4.8465010047        0.0816021771
 H         -4.5437799210       -6.8038941497       -0.6995936063
 H         -2.0844500741       -6.6713396359       -0.8767566702
 H         -0.9222293786       -4.5592337281       -0.3086345026
 H         -3.8044746777       -1.7048528309       -1.6358588270
 H         -5.9444337322       -0.8051190865       -2.4263214078
 H         -7.0407914954        1.0489510874       -1.2125716764
 H         -5.9978449695        1.9602771697        0.8332254541
 H         -3.8910025360        1.0445609076        1.6635124788
 H         -2.1662548766        1.7039617483       -0.6134736669
  85
  -138.591045060000       0.194828890479273      !
 F         -3.5610136572        4.7549768832       -0.1449521827
 C         -2.2883366726        4.3741695214       -0.3881347642
 F         -2.2819267618        3.8865773945       -1.6388326242
 F         -1.5673294736        5.5089808410       -0.4234556117
 C         -1.7865263954        3.3984903575        0.6325480634
 C         -1.3302657432        3.8782847461        1.8595112118
 C         -0.8820927344        2.9679343722        2.8090724616
 C         -0.8920800416        1.6164001221        2.5483806717
 C         -1.3532822938        1.1334822897        1.3104881189
 N         -1.3782194130       -0.2269519406        1.0575453338
 C         -0.3276633040       -1.1547311116        1.2660584687
 C          1.0202184429       -0.9098351664        1.5705539105
 C          1.6585333702        0.3591569367        1.6043347935
 C          3.0030736809        0.4600979570        1.8353798861
 C          3.7998934479       -0.6778546772        2.0217124251
 O          5.1326440322       -0.4652624502        2.2092906445
 C          6.0332483346       -1.4688987772        1.7851773553
 C          5.8984821082       -1.7295387605        0.2820174374
 C          6.1894641698       -0.4596775732       -0.5204207583
 C          5.4066438319       -0.4056897681       -1.8386894240
 N          4.0168612608       -0.0897990768       -1.6403878983
 C          2.9461536183       -0.9481943888       -1.7373588022
 C          2.9162869646       -2.3220380149       -1.9368449554
 C          1.6829140823       -2.9395057377       -2.0232325156
 C          0.4968937517       -2.2170717200       -1.9293268176
 C          0.5166347371       -0.8524327816       -1.7200577198
 C          1.7426405169       -0.2127763287       -1.6106441053
 C          2.1224542292        1.1552084314       -1.4051543817
 C          1.4045944241        2.3274790535       -1.2126019718
 C          2.0983507725        3.5070158588       -1.0311763556
 C          3.4910907910        3.5269991845       -1.0568692112
 C          4.2275004518        2.3749676078       -1.2601158796
 C          3.5362010905        1.1830378884       -1.4291173090
 C          3.1871778744       -1.9418147329        1.9943198438
 C          1.8438925202       -2.0519262632        1.7787054817
 N         -0.7580910758       -2.3967380464        0.9803958151
 C         -1.9854028569       -2.3149481841        0.5050060561
 C         -2.7207469793       -3.5155368732        0.1751850921
 C         -4.1125448989       -3.6050586031        0.2797128417
 C         -4.7570196772       -4.7873904830       -0.0264065357
 C         -4.0343065821       -5.8976248704       -0.4344203069
 C         -2.6503852979       -5.8271035739       -0.5141352901
 C         -1.9980821997       -4.6524947485       -0.2058670986
 C         -2.4238282830       -0.9387817448        0.4938139486
 C         -3.6628186761       -0.3975947826        0.0495167282
 C         -4.3157657750        0.6613971005        0.7176406981
 C         -5.5027530739        1.1655327062        0.2392730103
 C         -6.0792073093        0.6482111955       -0.9153281380
 C         -5.4568371683       -0.4031404708       -1.5799976112
 C         -4.2743449497       -0.9239350485       -1.1103312425
 C         -1.8088123488        2.0472642012        0.3503365576
 H         -1.3270519582        4.9371112843        2.0596460966
 H         -0.5332201229        3.3254706711        3.7654865127
 H         -0.5579542863        0.9096706652        3.2928278150
 H          1.1056283012        1.2573863408        1.3950700731
 H          3.4835245495        1.4263408228        1.8402399848
 H          5.8915811476       -2.3968497141        2.3525429666
 H          7.0224848121       -1.0677421023        2.0201746128
 H          6.5737411867       -2.5362136403       -0.0060032527
 H          4.8740891378       -2.0520844235        0.0856740920
 H          5.9051241559        0.4070506818        0.0791621847
 H          7.2572571504       -0.3874559991       -0.7330669512
 H          5.4782177510       -1.3634940886       -2.3590900091
 H          5.8420920558        0.3642324407       -2.4853256208
 H          3.8229449701       -2.9020273267       -2.0313578495
 H          1.6389601451       -4.0073559012       -2.1793803357
 H         -0.4460719137       -2.7338324017       -2.0241412300
 H         -0.4007031354       -0.2861546901       -1.6598398528
 H          0.3256392177        2.3136726432       -1.2061322938
 H          1.5575220937        4.4281205238       -0.8730110542
 H          4.0075603507        4.4653947860       -0.9179346565
 H          5.3062809000        2.4125065579       -1.2847689514
 H          3.7705333504       -2.8355096593        2.1564187136
 H          1.3665665218       -3.0177591272        1.7598861888
 H         -4.6826578989       -2.7579696819        0.6285399211
 H         -5.8322568708       -4.8459505122        0.0592501771
 H         -4.5454885235       -6.8173899929       -0.6773120198
 H         -2.0835575515       -6.6947701367       -0.8189436681
 H         -0.9228677093       -4.5794798884       -0.2584093057
 H         -3.9037540741        1.0445524790        1.6388117183
 H         -5.9903856220        1.9706501821        0.7688253285
 H         -7.0033091981        1.0586453406       -1.2917230499
 H         -5.8983579364       -0.8075122848       -2.4791347780
 H         -3.7777849465       -1.7171075349       -1.6490781534
 H         -2.1575390438        1.6978875732       -0.6091287509
