  45
        -70.41600796
 C          7.5458259850        1.7142726204        0.3377810568
 O          7.0619149678        0.5157163571       -0.2169732288
 C          5.7210773264        0.2881805221       -0.2104508798
 C          5.3217185710       -0.9344669738       -0.7869385246
 C          4.0014894001       -1.2801688146       -0.8404338761
 C          3.0038710221       -0.4249197734       -0.3161379966
 C          1.6459765439       -0.7634471007       -0.3486262782
 C          0.6787015857        0.0929267389        0.1761040891
 C         -0.7250197311       -0.1972349606        0.1545621007
 N         -1.6505578528        0.7367727529        0.0686354602
 C         -2.8664315710        0.1157866739        0.0029625254
 C         -4.0564401817        0.8860172670       -0.0827668417
 C         -3.9369744319        2.2716975923       -0.3371211695
 C         -5.0502514879        3.0680997585       -0.4471934314
 C         -6.3225060099        2.5242902339       -0.2966614233
 C         -6.4584322280        1.1688100289       -0.0183972353
 C         -5.3520782219        0.3580450159        0.0891544978
 C         -2.6601801276       -1.3096849166        0.0442936312
 C         -3.4638962282       -2.4256966263       -0.0537218073
 C         -2.8742523189       -3.7125873471        0.0805374799
 C         -1.5280639402       -3.8221327457        0.3447804931
 C         -0.7256246799       -2.6894689948        0.4104550513
 N         -1.2939931376       -1.4640681121        0.1840624043
 C          1.0859564903        1.3428735367        0.6982776261
 C          2.4043903933        1.6848365075        0.7492907878
 C          3.4069020929        0.8128374316        0.2569141914
 C          4.7676985913        1.1483675209        0.3020451217
 H          7.3007320006        1.7916503753        1.4020277804
 H          8.6273891250        1.6790497833        0.2186789664
 H          7.1517521929        2.5887052509       -0.1901867002
 H          6.0905993232       -1.5796132095       -1.1816995202
 H          3.7030263103       -2.2189720784       -1.2833963531
 H          1.3591842531       -1.6748683490       -0.8521962805
 H         -2.9442394968        2.6756850613       -0.4544402731
 H         -4.9398754480        4.1232627651       -0.6521785894
 H         -7.1973389655        3.1506984608       -0.3847252496
 H         -7.4441960382        0.7480648621        0.1213235311
 H         -5.4807269915       -0.6801006360        0.3460166925
 H         -4.5178217684       -2.3402132862       -0.2425337330
 H         -3.4968797232       -4.5881895235        0.0014063655
 H         -1.0708095130       -4.7856188423        0.5049173946
 H          0.3121418598       -2.7159174325        0.6880287761
 H          0.3191997181        2.0048418696        1.0683657128
 H          2.7050423258        2.6340029896        1.1689562367
 H          5.0436162668        2.0943949264        0.7419813131
  45
        -70.41585705
 C          7.5475458559        1.6577426042        0.4228588968
 O          7.0570270712        0.5000340446       -0.2067759434
 C          5.7138537461        0.2877795249       -0.2265263078
 C          5.3073037759       -0.8988583346       -0.8699855491
 C          3.9847643328       -1.2306425289       -0.9472530677
 C          2.9918395995       -0.3975349428       -0.3808691719
 C          1.6320248793       -0.7295127179       -0.4233608550
 C          0.6717175746        0.1035504244        0.1463189049
 C         -0.7324269338       -0.1932388769        0.1334542386
 N         -1.6648432621        0.7321247642        0.0625752366
 C         -2.8795242194        0.1015806682        0.0063019264
 C         -4.0638990490        0.8756785745       -0.1001524791
 C         -3.9295313883        2.2842272200       -0.1577346561
 C         -5.0297513314        3.0973309947       -0.2673234623
 C         -6.3081280374        2.5490377644       -0.3225443890
 C         -6.4619144483        1.1681815778       -0.2645062016
 C         -5.3682351464        0.3412859188       -0.1556954139
 C         -2.6608401852       -1.3233229021        0.0739093658
 C         -3.4563866559       -2.4489311968        0.0777787590
 C         -2.8506399287       -3.7259890874        0.2365777685
 C         -1.4907170377       -3.8180482465        0.4238018805
 C         -0.6974789644       -2.6780255797        0.4038829287
 N         -1.2888022927       -1.4642170627        0.1727001869
 C          1.0834550131        1.3287367017        0.7198169616
 C          2.4036379932        1.6627914479        0.7829686968
 C          3.4010185908        0.8084581131        0.2519764517
 C          4.7646711647        1.1301858323        0.3205671299
 H          7.1864125570        2.5658463533       -0.0700951363
 H          7.2725840633        1.6856835798        1.4818703497
 H          8.6314572056        1.6064872429        0.3336699096
 H          6.0725129968       -1.5294034137       -1.2945274183
 H          3.6813965128       -2.1430685824       -1.4396633212
 H          1.3390416347       -1.6172711471       -0.9647690759
 H         -2.9324259348        2.6918324831       -0.1171903947
 H         -4.9057353322        4.1698310556       -0.3115015532
 H         -7.1733393492        3.1888993742       -0.4088544274
 H         -7.4530810882        0.7390260712       -0.3052483359
 H         -5.5192475619       -0.7231219659       -0.1091304699
 H         -4.5229235611       -2.3848339797       -0.0271361502
 H         -3.4715367829       -4.6063600904        0.2361876758
 H         -1.0167688496       -4.7718428410        0.5928635494
 H          0.3551205094       -2.6865499738        0.6200914611
 H          0.3205162651        1.9762528946        1.1219455357
 H          2.7094826602        2.5904613637        1.2447494457
 H          5.0452166396        2.0507837248        0.8086389176
  45
        -70.41565720
 C          7.7263079531        0.5417769267        0.3312996232
 O          6.8622387614        1.2880914597       -0.4898685451
 C          5.5263667128        1.0404070606       -0.4268908504
 C          4.7327287109        1.8287928636       -1.2848994720
 C          3.3762854483        1.6739924374       -1.3178071613
 C          2.7337798603        0.7197998109       -0.4933330862
 C          1.3486985792        0.5353995435       -0.5060089302
 C          0.7376697249       -0.4329900707        0.2934176256
 C         -0.6885603993       -0.5600813253        0.2193420181
 N         -1.4786043040        0.4468812102       -0.0937291764
 C         -2.7703194984        0.0072519152       -0.0066794734
 C         -3.8420020396        0.8885248220       -0.3104075876
 C         -3.5487641053        2.2623417497       -0.4699783695
 C         -4.5406716831        3.1673619155       -0.7580613165
 C         -5.8573978921        2.7435983024       -0.9110728645
 C         -6.1608135769        1.3930356908       -0.7814531240
 C         -5.1779882373        0.4760459619       -0.4871297598
 C         -2.7611549183       -1.3747383426        0.3981452637
 C         -3.7188947171       -2.3183169389        0.7079926868
 C         -3.3043808207       -3.6399478198        1.0272885551
 C         -1.9687331939       -3.9662806553        0.9819976929
 C         -1.0130097499       -2.9966756963        0.6980460221
 N         -1.4231868964       -1.7075368145        0.4885600081
 C          1.5372887487       -1.1873504685        1.1794588281
 C          2.8905502793       -1.0080244981        1.2189978495
 C          3.5358159754       -0.0726031858        0.3746121110
 C          4.9271878124        0.1024656810        0.3931832724
 H          7.5104795868        0.7034350783        1.3923932067
 H          7.6678729618       -0.5283268860        0.1072605770
 H          8.7298950439        0.9015613112        0.1093751604
 H          5.2343431946        2.5514448647       -1.9089942540
 H          2.7724478272        2.2795069603       -1.9767709959
 H          0.7287020652        1.1307186871       -1.1572913895
 H         -2.5230338488        2.5730692215       -0.3476742869
 H         -4.2988476337        4.2148303332       -0.8684568017
 H         -6.6364798924        3.4554933275       -1.1386187697
 H         -7.1792818252        1.0582528429       -0.9197615408
 H         -5.4300717317       -0.5694717940       -0.4323383111
 H         -4.7635217457       -2.0691447969        0.7233424128
 H         -4.0480597692       -4.3806119847        1.2706753058
 H         -1.6374642884       -4.9762522272        1.1637651300
 H          0.0327769615       -3.2149807908        0.5840038798
 H          1.0714021231       -1.8686367747        1.8758192916
 H          3.4907802613       -1.5764890361        1.9150246903
 H          5.5089283554       -0.5124274427        1.0625585081
  45
        -70.41527576
 C          7.7511545503        0.1701204106       -0.0917946874
 O          6.8979421271        1.2608851514        0.1528572010
 C          5.5542303756        1.0670667604        0.0708504476
 C          4.7650537831        2.1851393308        0.4088260750
 C          3.4013384402        2.1049076013        0.4002160054
 C          2.7458413888        0.8995860999        0.0526232486
 C          1.3547773008        0.7674457569        0.0875307842
 C          0.7356754814       -0.4479659233       -0.2141668055
 C         -0.6882885897       -0.5370317721       -0.0796142554
 N         -1.4985805501        0.4944882352       -0.2118696620
 C         -2.7782419239        0.0394057701       -0.0586248203
 C         -3.8767076966        0.9393296457       -0.1058988473
 C         -5.1713194446        0.6132025380        0.3455239567
 C         -6.1915024296        1.5331375766        0.2689181809
 C         -5.9659790712        2.8012209739       -0.2545857991
 C         -4.6882030074        3.1490250654       -0.6820367402
 C         -3.6584643068        2.2430570638       -0.6042753342
 C         -2.7416950107       -1.3821354263        0.1632648427
 C         -3.6827784612       -2.3834284221        0.2910047500
 C         -3.2425961899       -3.7087251210        0.5532723319
 C         -1.9003282720       -3.9611066550        0.7204861267
 C         -0.9632950383       -2.9468730220        0.5549252040
 N         -1.3981766394       -1.7001005020        0.1939133093
 C          1.5316956202       -1.5219710460       -0.6703856126
 C          2.8905833171       -1.4064815972       -0.7263670523
 C          3.5444375122       -0.2161168142       -0.3255424234
 C          4.9423138352       -0.1139468105       -0.3071673199
 H          7.6738363532       -0.1777635089       -1.1270403067
 H          8.7604178546        0.5363771612        0.0898056573
 H          7.5404012721       -0.6624088178        0.5874744690
 H          5.2751685896        3.0951615638        0.6828068342
 H          2.8023935352        2.9617218346        0.6696155860
 H          0.7374112499        1.5989193682        0.3890252433
 H         -5.3557930935       -0.3473406882        0.7975258525
 H         -7.1767773679        1.2696463970        0.6268449058
 H         -6.7744076399        3.5141945560       -0.3155984691
 H         -4.5065984583        4.1391968081       -1.0746880955
 H         -2.6622087922        2.4953068466       -0.9306611999
 H         -4.7314670527       -2.1794583271        0.1787355392
 H         -3.9706328600       -4.4971542857        0.6490756299
 H         -1.5489825721       -4.9469496747        0.9804924840
 H          0.0857404184       -3.0775422814        0.7465183543
 H          1.0588390505       -2.4239742955       -1.0295403136
 H          3.4901123113       -2.2303125411       -1.0868247503
 H          5.5197836612       -0.9803198977       -0.5912143318
  45
        -70.41503976
 C          8.0303380845        0.2465808433       -0.4428147491
 O          6.9691262107        0.9791250727        0.1175755800
 C          5.6969460967        0.5228351299       -0.0409486167
 C          5.3508464751       -0.6485806971       -0.7278332771
 C          4.0325853431       -1.0222346934       -0.8310205621
 C          3.0002710114       -0.2518677296       -0.2531508804
 C          1.6552712632       -0.6275769839       -0.3408779973
 C          0.6499040960        0.1518391589        0.2414981048
 C         -0.7404235516       -0.1727934073        0.1742821234
 N         -1.6909072999        0.7436287225        0.1671641043
 C         -2.8839162165        0.1081529093       -0.0019435287
 C         -4.0870459741        0.8615645306       -0.1109700834
 C         -5.3003061390        0.3353311362       -0.5931978786
 C         -6.4251122627        1.1254683194       -0.6668431402
 C         -6.3844152244        2.4567763074       -0.2701907267
 C         -5.1875298674        3.0001258444        0.1849228304
 C         -4.0565423243        2.2234327776        0.2587821251
 C         -2.6529679271       -1.3105665599       -0.0374193695
 C         -3.4560256378       -2.4345958571       -0.0744690133
 C         -2.8527564149       -3.7125845450        0.0152000857
 C         -1.4880627011       -3.8144871827        0.1824974615
 C         -0.6953200833       -2.6760486729        0.2306694660
 N         -1.2834764496       -1.4509834919        0.0786982110
 C          1.0109192555        1.3637369429        0.8779811658
 C          2.3152318761        1.7398686336        0.9858366072
 C          3.3553058164        0.9441940671        0.4367168034
 C          4.6976991249        1.3055650652        0.5304158653
 H          8.9344282209        0.7995112556       -0.1922550635
 H          8.0943038751       -0.7602690176       -0.0174678931
 H          7.9411190471        0.1764060185       -1.5317190377
 H          6.1105315682       -1.2652281739       -1.1819657674
 H          3.7731215244       -1.9271645776       -1.3613558350
 H          1.4048245125       -1.4959849078       -0.9324374315
 H         -5.3434465571       -0.6817603479       -0.9463544054
 H         -7.3479757163        0.7078058833       -1.0436539667
 H         -7.2736490312        3.0667135592       -0.3256805187
 H         -5.1488264385        4.0383811010        0.4816597373
 H         -3.1199672074        2.6283804801        0.6069157083
 H         -4.5254259914       -2.3506480686       -0.1326672349
 H         -3.4721559629       -4.5935472707       -0.0201965686
 H         -1.0141488485       -4.7768184471        0.2923684162
 H          0.3572947236       -2.7023972382        0.4446730891
 H          0.2170844850        1.9673274613        1.2884844459
 H          2.5820827937        2.6550888530        1.4930267109
 H          4.9835872827        2.2082492282        1.0473514573
