90
 energy: -145.109837009061 gnorm: 0.000065473197 xtb: 6.7.1 (edcfbbe)
N          -10.94165348598211       -1.91899792303502       -0.48701912174318
C           -9.94105579362830       -1.37075098497085       -0.34668663570709
C           -8.72595136739354       -0.69612979333740       -0.17407991407875
N           -7.57810527931685       -1.32351088120307       -0.33842563880382
C           -6.44319633993557       -0.72176433613984       -0.18218298610483
C           -6.44204474226872        0.73486879623516        0.19644485650702
N           -7.57604030107335        1.33808605616973        0.35364262898071
C           -8.72485329231358        0.71221368503297        0.19022945803338
C           -9.93902079988986        1.38827145066266        0.36376589254403
N          -10.93915312396785        1.93733187447848        0.50423842183667
C           -5.08778049260908        1.14478994253333        0.29720502152015
C           -4.44847664288036        2.34358640408257        0.59839787403941
C           -3.06306064907064        2.37555745224856        0.52317308171365
C           -2.27692168722639        1.27060335411400        0.19479401147160
C           -0.85152788958204        1.48036360986114       -0.07320041799488
C           -0.30679160926461        1.07040774030832       -1.29209856511824
C            1.01029287313884        1.31913216066375       -1.60437718190621
C            1.84452459473044        1.97065656209497       -0.69203116325064
N            3.18841686952847        2.20420566467880       -0.98337446478943
C            3.83484881472897        3.32083643821304       -0.42978409474863
C            3.19745297794950        4.56018376347908       -0.39149547207149
C            3.83777428673169        5.65214288798723        0.16173000319248
C            5.11753982572462        5.52689451493146        0.67808898834551
C            5.75615279181997        4.29782175938683        0.63754338388104
C            5.12323295324166        3.19893027429542        0.08976963791722
C            3.92414129976650        1.33518640039699       -1.79571088101982
C            3.68009018308408       -0.03819445465625       -1.78986984280789
C            4.42826529607481       -0.88301946780963       -2.58577675729621
C            5.43317482393333       -0.37950872834396       -3.39526694907610
C            5.67783402298419        0.98430776017501       -3.40930236353567
C            4.93109782120932        1.83800730046598       -2.62180942582007
C            1.30136843170628        2.38728811942532        0.52750527507063
C           -0.02548259554243        2.15953394161586        0.82051236246775
C           -2.89804697517564        0.00430097261595        0.00476541813830
C           -2.27880040908016       -1.26275769960621       -0.18637414742144
C           -0.85323683202749       -1.47458164049831        0.07878382546889
C           -0.03078687846814       -2.15661016767884       -0.81609701073030
C            1.29609268291693       -2.38721338314783       -0.52569632786156
C            1.84296566776402       -1.97021998207792        0.69203950274565
N            3.18705156030998       -2.20780483579977        0.97988657292804
C            3.93023047590627       -1.33885314300321        1.78494099285616
C            4.94443326470078       -1.84149427129718        2.60238569099981
C            5.69900956540676       -0.98761030328718        3.38212763925889
C            5.45498243622673        0.37632768347459        3.36949087206687
C            4.44266353625238        0.87965261879106        2.56919555959606
C            3.68690980921933        0.03473710788813        1.78060740295265
C            3.82464530812531       -3.33076383964021        0.42839121441572
C            3.18099452113937       -4.56718817943138        0.40337433724966
C            3.81164803860680       -5.66588604159880       -0.14756247405225
C            5.08778194208252       -5.55007243120430       -0.67499998773449
C            5.73240001061721       -4.32376248830236       -0.64806686211343
C            5.10915979511047       -3.21820395459801       -0.10251833236460
C            1.01252183614515       -1.31555343820733        1.60549188998894
C           -0.30479717801089       -1.06440560188722        1.29595587830770
C           -3.06685297588916       -2.36673701020024       -0.51355376252019
C           -4.45231098156442       -2.33304585851330       -0.58668306423234
C           -5.08961744634623       -1.13343170904499       -0.28453344171206
C           -4.29713418449615        0.00516677148874        0.00583409869594
H           -5.01114380679392        3.22931421656805        0.84750440236379
H           -2.56047791516584        3.31960067055918        0.68267562692653
H           -0.94138323884101        0.57935091761794       -2.01475621095848
H            1.40092107828394        1.02432981788784       -2.56684379770269
H            2.20362722418144        4.65870582596262       -0.80293116784026
H            3.33715400438355        6.60855469123852        0.18290266132207
H            5.61457149143685        6.38259425548404        1.10859745241306
H            6.75138768486579        4.19098265090504        1.04257663347715
H            5.61567768610737        2.23775021355434        0.06799414058370
H            2.90164490573655       -0.43862819411972       -1.16060526280985
H            4.23146540026558       -1.94502462328428       -2.56589682628899
H            6.01778163630322       -1.04371665110362       -4.01299830286300
H            6.45133633293937        1.38862153765276       -4.04509295060153
H            5.11809510935328        2.90145147394904       -2.64600319562841
H            1.93076700759841        2.88789460586878        1.24864111450545
H           -0.42300611744203        2.48443609052309        1.77080668766239
H           -0.43119288504938       -2.48165604745740       -1.76512233018410
H            1.92274012011613       -2.89053331072367       -1.24735164750784
H            5.13103301308757       -2.90500776714882        2.62608264724920
H            6.47829342065312       -1.39192867171478        4.01082367061692
H            6.04571176656488        1.04071797994920        3.98116224481628
H            4.24602415545436        1.94170337094462        2.55065240045503
H            2.90314814761630        0.43543210997018        1.15814676580752
H            2.18992916518834       -4.65795365042273        0.82318363990675
H            3.30640897419570       -6.62003740593947       -0.15823645458058
H            5.57734699373602       -6.41099647340133       -1.10364539037206
H            6.72474980640240       -4.22441374310317       -1.06199047915071
H            5.60618295435841       -2.25919211313666       -0.09105557294109
H            1.40609353347892       -1.02053472072404        2.56669765052700
H           -0.93671470100251       -0.57131535766473        2.01956618331339
H           -2.56571384263819       -3.31140742115504       -0.67386580569956
H           -5.01647495376119       -3.21803830952704       -0.83501353785044
