90
 energy: -145.149038360368 gnorm: 0.000116033046 xtb: 6.7.1 (edcfbbe)
N          -11.81168630994816       -2.21821662523560       -0.67527207258744
C          -10.80671117636454       -1.68560151274267       -0.53662523820168
C           -9.58009864400716       -0.99920578189154       -0.35938094491901
N           -8.44493540218876       -1.69940784939665       -0.46282868026618
C           -7.33674057434315       -1.01325347164026       -0.29000797860623
C           -7.34450630349689        0.39782047122068       -0.01065098585863
N           -8.46042242693963        1.08548105839255        0.09289410218474
C           -9.58782200501416        0.38686860599061       -0.08155284849427
C          -10.82209556240095        1.07516455119917        0.01840795455793
N          -11.83272186227667        1.60973416157024        0.09386443974690
C           -5.97505313643827        0.83721095018194        0.11794911022322
C           -5.36791261043098        2.04254277983212        0.37612606831319
C           -3.97313014315079        2.07175802996626        0.39391525176887
C           -3.15888674645032        0.96389609550508        0.17825752729179
C           -1.71635549519079        1.25122243866738        0.17036410544608
C           -0.88521368531207        0.95024914367908       -0.90708337224378
C            0.41274195715087        1.41760334086662       -0.95500130649392
C            0.92238758343756        2.21124114297241        0.07578141582302
N            2.17142619629827        2.81319609209306       -0.00869562333571
C            2.37226421887299        4.08891426735571        0.54364400547966
C            1.38092683116938        5.06632600939960        0.47103097932362
C            1.59941093599179        6.31881988153481        1.01117783836282
C            2.80638664929739        6.61961997848755        1.62090773770158
C            3.79753092284173        5.65433750285409        1.68773232625209
C            3.58554085039169        4.39653955141010        1.15728159957727
C            3.24051006792390        2.23138614261727       -0.70866560466556
C            3.58095234102939        0.89506756268156       -0.51633709986288
C            4.68602858081796        0.36898097451890       -1.15994518821243
C            5.44537112919242        1.15171309229323       -2.01257515653822
C            5.09794245013558        2.47639722833209       -2.21995240594028
C            4.00619693135222        3.01663260775694       -1.57010514547181
C            0.11723115513396        2.44341406532146        1.19467794281645
C           -1.17861851500917        1.98609896584936        1.22953391823359
C           -3.76400178610629       -0.31094349732895       -0.03860406105387
C           -3.15624920312154       -1.59033274723004       -0.21484145892836
C           -1.71323676406523       -1.83280760317777       -0.11440838006434
C           -1.07241397461275       -2.56255496393988       -1.11502155446646
C            0.27089494716664       -2.84945313996747       -1.03506696495309
C            1.02354059816382       -2.41010801950174        0.05568221356919
N            2.38685856921991       -2.68211149421443        0.13402874142709
C            2.97152509659257       -2.92855900925268        1.38830358337279
C            2.30374547808746       -3.70645781487635        2.33292428049806
C            2.87770091539139       -3.94842248068117        3.56591546215923
C            4.12408913798738       -3.42753250237950        3.87313080027409
C            4.79271637591367       -2.65681284006040        2.93657940904148
C            4.22306180853487       -2.40375327900724        1.70336623661113
C            3.16089007160602       -2.78366453576629       -1.02800350664749
C            4.22594659236928       -3.68164004945225       -1.09145838947491
C            4.99896970616556       -3.76630642695814       -2.23375930268429
C            4.71974070087979       -2.97084469011422       -3.33257760479936
C            3.65875698516729       -2.08174816305264       -3.27789954345591
C            2.88719570124441       -1.98156512165514       -2.13730434166585
C            0.37898417878334       -1.70035768730820        1.07210399829419
C           -0.96836186425806       -1.42448058447479        0.98957131182654
C           -3.95261973055193       -2.69905181639709       -0.47635293665722
C           -5.34584173986669       -2.66441696709805       -0.54652398857013
C           -5.96255348560709       -1.45521728091073       -0.33235143938420
C           -5.16727536687898       -0.30909911467062       -0.08291500925847
H           -5.94236639621531        2.94050712025260        0.54156147319788
H           -3.48799369456854        3.02413442962218        0.55456083836311
H           -1.27757730698891        0.38729856166824       -1.74109011169462
H            1.02945811281156        1.21277716106028       -1.81809018750041
H            0.44404423034831        4.83895938428670       -0.01627663640155
H            0.82485467672747        7.06861073519253        0.94598694198894
H            2.97396329669057        7.60041964546256        2.03883697373920
H            4.74089854547825        5.87954208627052        2.16266439001690
H            4.35720121845644        3.64277564381827        1.21391499611332
H            2.98774880561408        0.28684993445266        0.15144270761485
H            4.96860750483954       -0.65909080942930       -0.99524042236408
H            6.30489298969807        0.72929646125744       -2.51005263978709
H            5.68041701484444        3.09237393442604       -2.88883354532666
H            3.73803363853797        4.05242434499802       -1.71930871835593
H            0.51299814120687        3.01136335871678        2.02350774657591
H           -1.78984340075639        2.18891678154512        2.09732022236250
H           -1.63601875297666       -2.89570898986636       -1.97449479539740
H            0.74578379717128       -3.42608994896937       -1.81454173116348
H            1.33612712729542       -4.12113598362089        2.09034391141524
H            2.35196213182220       -4.55567818400893        4.28776251429198
H            4.57151312672199       -3.62192393904075        4.83585130871437
H            5.76267635945815       -2.24278178997791        3.16899854162289
H            4.74522509296364       -1.79624838792520        0.97985927650172
H            4.44180635521171       -4.31345720580446       -0.24241355699738
H            5.82076282445410       -4.46626712853924       -2.26710195591048
H            5.32377321637369       -3.04309005853171       -4.22394103213592
H            3.43724359160692       -1.45001211683149       -4.12522925048637
H            2.07547964252650       -1.27107923983997       -2.09341129511205
H            0.94327446509493       -1.36738557995343        1.93065993168387
H           -1.45446786459949       -0.89760239542409        1.79667728249579
H           -3.45914351158279       -3.65249226370626       -0.60021352788752
H           -5.91333212857348       -3.56052018372757       -0.74309587662474
