63
 energy: -106.080748310728 gnorm: 0.000063217520 xtb: 6.7.1 (edcfbbe)
N            2.09391188243546        3.58350178809047       -0.76686738243241
C            1.62292541879939        2.58995786286892       -0.43812567310242
C            1.02121311719842        1.36493797407740       -0.07615034674905
C           -0.35545531887107        1.25400532772290       -0.14346431087342
C           -0.99194939817941        0.02588954007096        0.10673742709596
C           -2.40433170898633       -0.07839609918238        0.04953697852506
N           -3.15790695157158        1.01041084540431       -0.24914150528313
C           -4.45641386380361        0.89659625091910       -0.28917370628970
C           -5.27070289230795        2.06276631632313       -0.60102130046445
C           -6.66170813534341        1.95831874946857       -0.63506994205655
C           -7.43204566030843        3.06518076117996       -0.93072731502456
C           -6.82731370254123        4.28443063783621       -1.19524393421933
C           -5.44475832482401        4.39434522339888       -1.16298986056961
C           -4.66769867631977        3.29287644882508       -0.86801747478291
N           -5.08178158223662       -0.27552378130301       -0.05282787866810
C           -4.31131329358342       -1.34571648741912        0.23471785852345
C           -4.96709084028046       -2.62038036006698        0.48831181042196
C           -6.35762904000399       -2.71889169812295        0.42679529474557
C           -6.97735543901072       -3.92878321160961        0.66770284014417
C           -6.22137723976859       -5.05058470471772        0.97150995493486
C           -4.83845493098319       -4.95886366563310        1.03356822395850
C           -4.21134887985029       -3.75335705304866        0.79406965382134
N           -3.01100763556611       -1.26617012438262        0.29591872047399
C           -0.18540150085336       -1.10160448233040        0.39439017715182
C            1.17802247856929       -0.99069417433388        0.47052913779461
C            1.80558727199910        0.24116248724073        0.26850586632838
N            3.20069823734930        0.33773004775165        0.36613500893326
C            3.94570997027938        1.31385850829600        1.01512026789816
C            3.54906795365117        2.37359048177475        1.81434387021058
C            4.53885265878267        3.17797615643220        2.35006432301874
C            5.88758079931351        2.93271401640803        2.11336671957614
C            6.30101840126891        1.85458926227459        1.34851051144922
C            5.32047136095979        1.04429078207776        0.81004258573476
N            5.37256586850008       -0.10554561425847        0.05676995213500
C            6.20202785431980       -1.02377035091196       -0.54992848058457
C            7.57097794907769       -1.14621097145430       -0.65773325901318
C            8.05344249212270       -2.23639908501684       -1.36542138352873
C            7.19438108030274       -3.16912752377525       -1.94324062323130
C            5.82203625883340       -3.05530167600311       -1.84059500342892
C            5.31037016251985       -1.97077709004428       -1.13690251707345
N            4.00129988925859       -1.63529374743383       -0.89277837467003
C            4.08223142835579       -0.53324280225035       -0.19326073491881
H           -0.95491727558409        2.11122369119747       -0.40897627562554
H           -7.11787425489374        1.00270445467170       -0.42703879031843
H           -8.50861311964918        2.98043222260039       -0.95613724605355
H           -7.43236086113320        5.14859373486034       -1.42664126188691
H           -4.97459306471602        5.34449897661468       -1.36964957030288
H           -3.59133969152980        3.36321667224843       -0.84017479685436
H           -6.93248745545810       -1.83717864574532        0.18877767812559
H           -8.05403053650951       -4.00114123504439        0.61922586816098
H           -6.70881542181269       -5.99581043974286        1.15959651384165
H           -4.25073357249634       -5.83380718937340        1.26977867985243
H           -3.13677094783692       -3.66615523243928        0.83827429991236
H           -0.67216206068218       -2.04964195449046        0.55681181326733
H            1.79288563263813       -1.85057945190000        0.68647685572944
H            2.50829385436008        2.56409193498497        2.01965190798345
H            4.25577631136351        4.01471958977255        2.96912134046275
H            6.62814117142826        3.58802028922119        2.54483669761637
H            7.34645184025214        1.64998201800416        1.18310166145148
H            8.24023009007482       -0.42594701294708       -0.21328395764946
H            9.12010628720643       -2.36432915644718       -1.47097871229479
H            7.61721127305329       -4.00149975964657       -2.48563645354637
H            5.15540186547191       -3.77441759218988       -2.28752229521666
