63
 energy: -106.080739521241 gnorm: 0.000103631661 xtb: 6.7.1 (edcfbbe)
N            2.07891841630917        3.56902332642430       -0.89513469790419
C            1.61474976519440        2.58280030362285       -0.53607666814317
C            1.01986130052057        1.36526192280357       -0.13920933318454
C           -0.35690412749766        1.24897509108242       -0.19588267737032
C           -0.98833892139745        0.02441585281088        0.08277280878294
C           -2.40086340368791       -0.08431699328549        0.03909306385247
N           -3.16059544648408        1.00149193009997       -0.25478577950568
C           -4.45926220930383        0.88471871140266       -0.27733105123584
C           -5.28030858136548        2.04988290178589       -0.57493333336260
C           -6.67158192022438        1.94383285749949       -0.58483574718398
C           -7.44828838353193        3.05055018238829       -0.86389336389292
C           -6.84975471782927        4.27120755311991       -1.13590555128478
C           -5.46696459774884        4.38263516267778       -1.12800947738169
C           -4.68356343818615        3.28138163961652       -0.84952298831040
N           -5.07883123581248       -0.28898402035037       -0.03360500141927
C           -4.30220874477934       -1.35675934888940        0.24629795087440
C           -4.95116808489593       -2.63402458342595        0.50424744199318
C           -6.34173074621445       -2.73798529818235        0.45311022970604
C           -6.95474717986905       -3.95087784465825        0.69610723303899
C           -6.19200450381628       -5.07025628082870        0.99185032199109
C           -4.80903853284814       -4.97306637966486        1.04376642412120
C           -4.18860824538087       -3.76457362701407        0.80199440382186
N           -3.00165482721441       -1.27285992437281        0.29573724160185
C           -0.17642803302655       -1.09528425638623        0.38550680672042
C            1.18679484972155       -0.97816803344479        0.45454394221321
C            1.80950913209870        0.25189892202745        0.22698511346262
N            3.20391883736945        0.35569201428582        0.32263905625108
C            3.94534426800736        1.35366577656932        0.94231523372998
C            3.54502633943960        2.43694165923200        1.70749587336155
C            4.53192624520662        3.26011393033655        2.21947348754740
C            5.88165940370263        3.01077876653868        1.99318571076237
C            6.29892382354998        1.90936525999769        1.26447302924577
C            5.32121512807844        1.08012278437333        0.75024517594321
N            5.37773192896308       -0.09422244703210        0.03620428639086
C            6.21103409494365       -1.03350503499840       -0.53165066715039
C            7.58065961648723       -1.15891536482548       -0.62701383492195
C            8.06770332962204       -2.27521369546115       -1.28936216551249
C            7.21241073621151       -3.23009009432646       -1.83574930090095
C            5.83943964824492       -3.11316919279150       -1.74575449311198
C            5.32322924741996       -2.00278194675949       -1.08715687473369
N            4.01264847024877       -1.65992742549087       -0.86197705244845
C            4.08900169214375       -0.53265370172772       -0.20322920726623
H           -0.96030328397407        2.09864401098605       -0.47634683428100
H           -7.12294998701522        0.98725414528390       -0.37083830221611
H           -8.52504898404005        2.96464967224690       -0.87020970661728
H           -7.45979734662117        5.13531613037086       -1.35400228657173
H           -5.00161812883467        5.33389745784917       -1.34042001780317
H           -3.60696908050438        3.35302257387367       -0.84012684175113
H           -6.92191212737401       -1.85820173479741        0.22096360019238
H           -8.03144105064008       -4.02753048133268        0.65534852608286
H           -6.67419865568079       -6.01787824704672        1.18138112938701
H           -4.21602165754791       -5.84610621025794        1.27367518153976
H           -3.11407219642898       -3.67320835382122        0.83797039171627
H           -0.65908306076557       -2.04186995177136        0.56747481711945
H            1.80549169135030       -1.83160145195990        0.68454689906667
H            2.50365888112153        2.63128670843840        1.90588412823032
H            4.24559026263044        4.11507513363855        2.81154404806123
H            6.61988836113066        3.68124220686412        2.40490315552936
H            7.34512777265529        1.70145907087526        1.10833429126501
H            8.24699282433886       -0.42172641566101       -0.20658483928727
H            9.13502536113657       -2.40654179067704       -1.38350670559854
H            7.63877060109876       -4.08271180308358       -2.34277859509620
H            5.17577812377284       -3.84958934659615       -2.16826247802973
