63
 energy: -106.154958721420 gnorm: 0.000075277518 xtb: 6.7.1 (edcfbbe)
N            2.00042672343538        3.64439538554283       -0.83727012406501
C            1.57769316196417        2.64369546036021       -0.46962758753849
C            1.00857958461693        1.40781104475904       -0.08593981117748
C           -0.37655541473130        1.27916057460079       -0.14260613068428
C           -0.97927266262400        0.05202516909716        0.09798843446274
C           -2.43718170192855       -0.07183151776554        0.04659639236720
N           -3.14419540808245        1.02328949916799       -0.20933630323806
C           -4.46579161085261        0.86518028865835       -0.24836702120155
C           -5.29004455722679        2.03893867877229       -0.53153491578032
C           -6.67812479293108        1.92357593327279       -0.58318166610515
C           -7.45453985233559        3.03385836936117       -0.85136125538463
C           -6.85563150732162        4.26503400238265       -1.06979969425898
C           -5.47541931213407        4.38516676911845       -1.01981203551768
C           -4.69295403983549        3.27894488315272       -0.75212553430902
N           -5.07859589318203       -0.29698056159369       -0.04388963592547
C           -4.29330480911124       -1.33938028450052        0.20944173445919
C           -4.92424662046845       -2.63718408247301        0.44454207237451
C           -6.31253728048061       -2.75672069231176        0.41585106834849
C           -6.90536946782320       -3.98396350806591        0.63954611186510
C           -6.12158870355476       -5.09917577907836        0.89271094053256
C           -4.74020611099984       -4.98569349533912        0.92177242932947
C           -4.14079586647950       -3.76148802469928        0.69911424176049
N           -2.96452877258915       -1.27151881532104        0.26279896523060
C           -0.18234826166905       -1.06323117749446        0.36540422489824
C            1.18809969106829       -0.94396833762718        0.43606496581638
C            1.80099637560751        0.29326092094581        0.24493539396247
N            3.18596237117920        0.38868959254689        0.34476757622578
C            3.95639734468178        1.41324398745024        0.89987047024781
C            3.59019866793481        2.52112741857528        1.64113418093003
C            4.60029751082797        3.35039789602670        2.10262300535253
C            5.93817015059899        3.07712045861069        1.85308599988306
C            6.32155298726261        1.94254546838769        1.15633853823293
C            5.32105867370930        1.11052506160966        0.69372711242243
N            5.35358353064201       -0.09948403027616        0.03711105221431
C            6.16775213283022       -1.07183103463344       -0.49863865609495
C            7.53726326814929       -1.20705691384166       -0.62130920690863
C            8.00413102903138       -2.35643620985178       -1.23201513215955
C            7.13199212740455       -3.33593654328391       -1.70346062687786
C            5.76196087220171       -3.20883176092388       -1.58536907758944
C            5.26717736741025       -2.06433437524218       -0.97692322612379
N            3.95634932167246       -1.70100040740302       -0.73326265960033
C            4.05873590446155       -0.54728582844196       -0.14417183931368
H           -0.98925937678652        2.13184164794811       -0.39116437993836
H           -7.12622036046710        0.95770017781753       -0.41118627764129
H           -8.53010561586679        2.94285079159661       -0.89125602356547
H           -7.46524000760587        5.13179808141216       -1.27950859118295
H           -5.01081407718721        5.34510476352177       -1.19075574875111
H           -3.61789377427300        3.35484133702060       -0.71004516194230
H           -6.90598717455913       -1.87831155315427        0.21713165514293
H           -7.98141283043975       -4.07517449625101        0.61698657415012
H           -6.58785464695742       -6.05783280609297        1.06729070231295
H           -4.13164059477180       -5.85607561776550        1.11870573998343
H           -3.06770252075538       -3.65483022294614        0.71746025662679
H           -0.66221473705119       -2.01566886059710        0.52262205908022
H            1.81058694492383       -1.80251441965728        0.63132210172920
H            2.55841996589764        2.73631672969421        1.86705961575820
H            4.33594691231844        4.22667079870230        2.67340222172161
H            6.69557797059177        3.75030180393264        2.22346446858941
H            7.36054914659338        1.70958371783839        0.98836923950796
H            8.21374569345514       -0.44898097865753       -0.25774625351941
H            9.06834098546704       -2.49792561929135       -1.34629017141690
H            7.54264748093010       -4.21690107471447       -2.17417202496191
H            5.08716702259954       -3.96549708936118       -1.95117678071097
