63
 energy: -106.153454314019 gnorm: 0.000081346791 xtb: 6.7.1 (edcfbbe)
N            2.62033678486114        2.87693235656560        1.29389530511227
C            2.06684019306021        1.95719142388894        0.89278327478181
C            1.31873784482786        0.81778702263714        0.51062727290734
C           -0.06450969854246        0.92197851007621        0.41852565601405
C           -0.83686317247150       -0.20201988609344        0.15184683948757
C           -2.29360363650791       -0.08675232368844        0.05593889303489
N           -2.83589188037958        1.10655921819073        0.26807649641793
C           -4.16278589064652        1.16713719866427        0.17511572727746
C           -4.80975441627280        2.45680236857990        0.40839417610605
C           -6.19578416063348        2.57177659292593        0.31510450190398
C           -6.80459629267219        3.79134810058560        0.53722340631014
C           -6.03916888642332        4.90336296710007        0.85325579638267
C           -4.66028396252192        4.79441982090471        0.94698721530022
C           -4.04471963622424        3.57789276393524        0.72610588837144
N           -4.93211007645095        0.12241813430856       -0.11706263582959
C           -4.30485614159679       -1.03204296992909       -0.31775942609903
C           -5.11210958762843       -2.20599760222517       -0.64740267118336
C           -6.50030558904653       -2.10387930271297       -0.71674106438727
C           -7.26041078648900       -3.21370313978137       -1.03009825380174
C           -6.64491387164236       -4.43119502274903       -1.27677457984283
C           -5.26435199273903       -4.53807505697487       -1.20940319639421
C           -4.49837475609685       -3.43229222238742       -0.89618122979591
N           -2.98424410303172       -1.18357856696103       -0.23626735620037
C           -0.21563606654758       -1.43958609536468       -0.01950273378345
C            1.15635395634415       -1.55093324143357        0.06017503172976
C            1.93941295270399       -0.42915023826622        0.31961429731212
N            3.32849897517580       -0.52606260591300        0.36544735895312
C            4.10947216746993       -1.49310367713172        0.99529947161744
C            3.75210026435934       -2.56288482719713        1.79425552431876
C            4.77082325986127       -3.34613591973091        2.31537233287047
C            6.10633572596210       -3.06746021678445        2.05811477897853
C            6.47861473715194       -1.98229844187232        1.28036923647256
C            5.47113808192389       -1.19628278930443        0.75569162121118
N            5.48820052657811       -0.05985882796975       -0.01947319148465
C            6.28403147421765        0.82568329030074       -0.71225771334959
C            7.65020801977396        0.95424986471350       -0.87167586855301
C            8.09584914129156        1.99574257692129       -1.66482678273737
C            7.20613862176948        2.87744340250837       -2.27557251636537
C            5.83900182001031        2.75539422621901       -2.12235717264797
C            5.36549552351576        1.71773630896462       -1.33320416292276
N            4.06165982253321        1.37595030506057       -1.02951045752962
C            4.18560809028745        0.34423446298460       -0.25332803445328
H           -0.54824047091732        1.87517845244245        0.56368431453458
H           -6.77479127571553        1.69602644979543        0.06780233077317
H           -7.87873893591568        3.87902269152267        0.46454390051574
H           -6.51800403532592        5.85601697068763        1.02659727850163
H           -4.06587297927597        5.66190028110306        1.19309679340638
H           -2.97326823383243        3.47579162599885        0.79513378572363
H           -6.96141462685099       -1.14857877681749       -0.52186203060244
H           -8.33618069048713       -3.13295142829969       -1.08338989022352
H           -7.24164157376431       -5.29756882500609       -1.52211717195389
H           -4.78711359286335       -5.48766696904632       -1.40269651361018
H           -3.42313958196810       -3.49668529901543       -0.84079878228239
H           -0.82844525745551       -2.30194754088906       -0.22810973384981
H            1.63735994870742       -2.50316644879151       -0.10454490395962
H            2.71886551241910       -2.77663842953763        2.01772865915841
H            4.51648893329541       -4.18959154134568        2.93853685630441
H            6.87083653762227       -3.70157015598423        2.47953171816444
H            7.51555180515956       -1.75427576194941        1.09430236934114
H            8.34057714173816        0.27341172623451       -0.39759947087540
H            9.15705943019614        2.12918589549039       -1.81261498385035
H            7.60073052401539        3.67747433214637       -2.88434482446933
H            5.14979604212180        3.43788880971373       -2.59170175625876
