  47
        -72.31402807
 C          2.0590226108       -2.7659851990       -0.3862433343
 C          1.1875318434       -1.7555239810        0.3995819523
 C          1.3148606525       -1.9439057342        1.9313233970
 C          1.5622128634       -0.3384576489        0.0221200686
 C          0.5325720081        0.5899907241       -0.2950495319
 C          0.8406620825        1.8177151945       -0.9109745758
 C          2.1336496898        2.1893123783       -1.1048680951
 C          3.1961016944        1.3948922155       -0.5932200369
 C          4.5134689270        1.8446486714       -0.6867261416
 C          5.5653363041        1.0984432774       -0.1831090359
 C          5.2957754667       -0.1123575414        0.4378082780
 C          4.0049032731       -0.5894875462        0.5286938167
 C          2.9025950613        0.1261594682       -0.0041183561
 N         -0.7815698348        0.2836065815       -0.0362643134
 C         -1.7187860338        1.2782455245        0.2278561520
 C         -1.3374165387        2.4840188267        0.8164708180
 C         -2.2644452475        3.4872832866        1.0305598829
 C         -3.5936685260        3.3012193972        0.6541807564
 C         -3.9994610432        2.0908760360        0.1409725174
 C         -3.0852726646        1.0448920460       -0.0494174321
 C         -3.5516369605       -0.2690657220       -0.4516612059
 O         -4.7217897034       -0.4898288671       -0.8097682413
 C         -2.5651074185       -1.3263980099       -0.2993967458
 C         -2.9594860309       -2.6629916331       -0.3932972381
 C         -2.0410081006       -3.6748547121       -0.2171420217
 C         -0.7082666667       -3.3770634888        0.0328974869
 C         -0.2649568535       -2.0581433509        0.0878670369
 C         -1.2003711603       -1.0358723494       -0.0645024355
 H          3.0075753021       -2.3337819967       -0.6842676197
 H          1.5411229366       -3.0640366684       -1.2956887256
 H          2.2570687504       -3.6547155998        0.2072964797
 H          2.3180131499       -1.7355971061        2.2869493120
 H          0.6307156771       -1.2648497448        2.4378415911
 H          1.0473020146       -2.9619815012        2.2038897124
 H          0.0314030537        2.4365722692       -1.2682571949
 H          2.3717901610        3.1022509378       -1.6281402961
 H          4.7021039920        2.7984941104       -1.1574888458
 H          6.5787835744        1.4613443314       -0.2601633938
 H          6.1032224483       -0.6911496346        0.8620967226
 H          3.8546370201       -1.5202627956        1.0467035568
 H         -0.3124353596        2.6239211606        1.1274538208
 H         -1.9525823601        4.4118943283        1.4905277905
 H         -4.3075472570        4.0993118609        0.7911084764
 H         -5.0294044804        1.9018995557       -0.1192060624
 H         -4.0003055258       -2.8648050770       -0.5925190298
 H         -2.3560211393       -4.7063907135       -0.2658481103
 H         -0.0113970473       -4.1848050738        0.1843786392
  47
        -72.31276094
 C          1.9801225110       -2.6682923643       -0.6515760343
 C          1.2021299470       -1.7685125159        0.3415388962
 C          1.5289387994       -2.1267192523        1.8188671840
 C          1.5544261165       -0.3318910906        0.0256650707
 C          0.5276403627        0.5951999642       -0.3023237511
 C          0.8462899125        1.8259027541       -0.9085317198
 C          2.1415679566        2.2018496673       -1.0775749546
 C          3.1971527536        1.4072369122       -0.5512922442
 C          4.5169056781        1.8540190673       -0.6180122157
 C          5.5578469502        1.0970313927       -0.1070083893
 C          5.2763888077       -0.1221265825        0.4924747753
 C          3.9828129786       -0.5956592996        0.5585406822
 C          2.8937973406        0.1338594747        0.0201365146
 N         -0.7872190859        0.2896541968       -0.0519586309
 C         -1.7248253154        1.2869825928        0.2042892844
 C         -1.3458005785        2.4998370585        0.7798340882
 C         -2.2734613995        3.5059414347        0.9777102340
 C         -3.6011896397        3.3162363206        0.5978832125
 C         -4.0056918563        2.0985065648        0.1015871954
 C         -3.0913203648        1.0492875644       -0.0686105106
 C         -3.5582018749       -0.2733682911       -0.4390486107
 O         -4.7291177103       -0.5034987773       -0.7880870480
 C         -2.5721784531       -1.3267269336       -0.2586228433
 C         -2.9748264408       -2.6632583090       -0.2984433861
 C         -2.0599783178       -3.6726246610       -0.0927525464
 C         -0.7221626483       -3.3711743144        0.1194103694
 C         -0.2694162200       -2.0534541077        0.1162790305
 C         -1.2031082759       -1.0314235328       -0.0498449792
 H          1.5280992628       -2.5913865113       -1.6389452477
 H          1.9518101476       -3.7081913497       -0.3407456772
 H          3.0175393424       -2.3614861928       -0.7332630663
 H          0.6455404588       -2.5265977471        2.3122196536
 H          2.3106297740       -2.8789605758        1.8820062151
 H          1.8461475242       -1.2448690919        2.3695447333
 H          0.0424481188        2.4435326028       -1.2799835533
 H          2.3864443114        3.1171933367       -1.5935149334
 H          4.7167640052        2.8123084923       -1.0749740262
 H          6.5734492976        1.4581352187       -0.1627057197
 H          6.0765415777       -0.7083811698        0.9204092770
 H          3.8125819999       -1.5286200331        1.0640485364
 H         -0.3226410996        2.6441399422        1.0944562132
 H         -1.9627514897        4.4363115266        1.4265897421
 H         -4.3148650910        4.1168504514        0.7200651503
 H         -5.0346997156        1.9053368086       -0.1591108325
 H         -4.0185639741       -2.8662489461       -0.4806710106
 H         -2.3802926167       -4.7036147326       -0.0948962024
 H         -0.0271609572       -4.1755858809        0.2954880928
  47
        -72.31229933
 C          1.9074462134       -2.6345080850       -0.8012237581
 C          1.2105425588       -1.7767093113        0.2887881757
 C          1.6133615951       -2.1971982644        1.7286624840
 C          1.5597262868       -0.3327417188        0.0135395485
 C          0.5290690366        0.6046478669       -0.2743863901
 C          0.8529571585        1.8597115190       -0.8295568444
 C          2.1463523999        2.2574366935       -0.9467891519
 C          3.2027214524        1.4379283096       -0.4619202749
 C          4.5180844143        1.9013259068       -0.4817378523
 C          5.5663203338        1.1039559162       -0.0550870066
 C          5.2967513164       -0.1813692350        0.3936207550
 C          4.0066679247       -0.6661922342        0.4233878777
 C          2.9033915742        0.1195305776       -0.0004221750
 N         -0.7872079964        0.2931424257       -0.0401619908
 C         -1.7336184256        1.2894016469        0.1967989722
 C         -1.3734236910        2.5093359507        0.7699937307
 C         -2.3025399003        3.5233653366        0.9137698996
 C         -3.6153771414        3.3339205942        0.4846385462
 C         -4.0088657292        2.1048369082        0.0086954555
 C         -3.0943297618        1.0476928066       -0.1036105870
 C         -3.5601405078       -0.2853536203       -0.4315072612
 O         -4.7301586711       -0.5274511546       -0.7767762079
 C         -2.5748022810       -1.3313316571       -0.2125899615
 C         -2.9809869454       -2.6672593169       -0.1982743553
 C         -2.0666404307       -3.6728996488        0.0274151601
 C         -0.7232529629       -3.3679096881        0.1921793719
 C         -0.2703747739       -2.0516614356        0.1378498032
 C         -1.2033654677       -1.0290305754       -0.0275957656
 H          1.9100785387       -3.6859991855       -0.5301237712
 H          2.9305557718       -2.3169819270       -0.9702508746
 H          1.3658808756       -2.5252468139       -1.7394516612
 H          2.2276306632       -1.4390129494        2.2053813309
 H          0.7214201231       -2.3262213364        2.3389674811
 H          2.1559724908       -3.1390421124        1.7268831904
 H          0.0539508731        2.4867645247       -1.1955200615
 H          2.3911982167        3.2027702122       -1.4057644612
 H          4.7088712603        2.9030599036       -0.8385149159
 H          6.5787314555        1.4775604738       -0.0707988056
 H          6.1056831066       -0.8137871616        0.7295357108
 H          3.8565850318       -1.6623156022        0.7993827569
 H         -0.3627468154        2.6558312628        1.1217952513
 H         -2.0043548300        4.4603765802        1.3573621400
 H         -4.3272498362        4.1422484117        0.5567381278
 H         -5.0301766346        1.9068939006       -0.2777062528
 H         -4.0285132344       -2.8723051597       -0.3543835154
 H         -2.3906371054       -4.7017322813        0.0719670753
 H         -0.0211235369       -4.1657456559        0.3702973995
