  114
       -154.51341946
 C          8.6694983640        4.8794533289       -1.5689134110
 C          8.8149080442        4.1033876363       -0.2523134750
 C          8.6179957868        5.0547487020        0.9364492975
 C         10.2404729452        3.5487930208       -0.1846057799
 C          7.7582289378        3.0094925515       -0.1948540136
 C          6.4056517454        3.3727399156       -0.2493713389
 C          5.3788191941        2.4525512190       -0.1964217638
 C          5.7116167658        1.1123318827       -0.0750268775
 C          7.0652924983        0.7174381392       -0.0421399845
 C          8.0784583842        1.6656617628       -0.0982438814
 C          7.0691820586       -0.7170276100        0.0372201567
 C          8.0870548048       -1.6578151760        0.1239585994
 C          7.7737397306       -3.0033719062        0.2188820940
 C          8.8361976773       -4.0886583259        0.3176054938
 C          8.6577744591       -4.8500641711        1.6388300972
 C         10.2591188468       -3.5237829572        0.2845726374
 C          8.6812945804       -5.0551727807       -0.8650768484
 C          6.4227679834       -3.3761578840        0.2377352414
 C          5.3912746031       -2.4634996801        0.1534137890
 C          5.7177338888       -1.1213685133        0.0370301643
 N          4.9038810628       -0.0072559963       -0.0295978131
 C          3.5040327811       -0.0103395088       -0.0326588050
 C          2.8096579799        0.8131044334        0.8470666304
 C          1.4173521630        0.8284260125        0.8580451720
 C          0.6752239314        1.6586251432        1.7506555452
 C         -0.6772522277        1.6527892226        1.7544620765
 C         -1.4172267830        0.8200168359        0.8624300403
 C         -2.8093069628        0.7974610136        0.8549540506
 C         -3.5029401254       -0.0150950980       -0.0360255985
 N         -4.9021694173       -0.0101925298       -0.0358027382
 C         -5.7205149305       -1.1236186328       -0.0201436875
 C         -5.4010739853       -2.4716583836        0.0310755129
 C         -6.4367980413       -3.3829196586        0.0626640165
 C         -7.7860708643       -3.0042593998        0.0566887672
 C         -8.8533283221       -4.0890453291        0.0814027586
 C         -8.6994641011       -4.9717609495       -1.1652486918
 C         -8.6814801828       -4.9415654454        1.3466120400
 C        -10.2736000530       -3.5170414208        0.0855103056
 C         -8.0928950144       -1.6540162237        0.0353338131
 C         -7.0704563241       -0.7148076165        0.0010629970
 C         -7.0616991751        0.7219607385       -0.0056083285
 C         -8.0723288088        1.6746328298       -0.0035056896
 C         -7.7484162634        3.0207983026       -0.0316817914
 C         -8.8006610309        4.1201664916       -0.0114328939
 C         -8.6779343919        4.9639643772       -1.2879896411
 C        -10.2271191572        3.5677900756        0.0572071376
 C         -8.5750488706        5.0068228151        1.2216995566
 C         -6.3953853616        3.3817716624       -0.0871060544
 C         -5.3714031476        2.4569941656       -0.0908902756
 C         -5.7068648608        1.1133636369       -0.0266463838
 C         -2.8087924566       -0.8294212721       -0.9245173969
 C         -1.4160956120       -0.8519898471       -0.9294065000
 C         -0.6734960772       -1.6843325842       -1.8196489902
 C          0.6792185904       -1.6874536344       -1.8154591773
 C          1.4200466869       -0.8550051979       -0.9238301330
 C          2.8127433228       -0.8360175361       -0.9125141131
 C          0.7076569570       -0.0141863232       -0.0331511198
 C         -0.7052871008       -0.0155534463       -0.0334688836
 H          9.4320717596        5.6529693925       -1.6346046403
 H          7.6958412941        5.3553179671       -1.6445731025
 H          8.7860560303        4.2064119815       -2.4158684547
 H          7.6426225878        5.5323054772        0.9052194355
 H          8.6990129778        4.5064287989        1.8728980674
 H          9.3785180913        5.8329869380        0.9247663458
 H         10.9520718761        4.3712602737       -0.2259000682
 H         10.4060807149        3.0079458161        0.7442346939
 H         10.4430762125        2.8878260975       -1.0241576701
 H          6.1410067478        4.4152507125       -0.3409708397
 H          4.3495822141        2.7730751649       -0.2609969134
 H          9.1012512820        1.3287695106       -0.0696745683
 H          9.1077731632       -1.3134193586        0.1224422746
 H          9.4275473924       -5.6125624466        1.7397156360
 H          8.7375746260       -4.1648301295        2.4803964113
 H          7.6881766457       -5.3376995433        1.6885942518
 H         10.9751538815       -4.3406456739        0.3511298547
 H         10.4457895937       -2.9885675382       -0.6435860041
 H         10.4341309910       -2.8552758615        1.1242650500
 H          7.7060529890       -5.5339367352       -0.8616934333
 H          9.4418963013       -5.8319423362       -0.8170513955
 H          8.7942375688       -4.5187127024       -1.8051459663
 H          6.1632700870       -4.4201978602        0.3264454671
 H          4.3629592944       -2.7912872150        0.1912110508
 H          3.3577060615        1.4344382924        1.5400919660
 H          1.2264224132        2.2948455312        2.4285280816
 H         -1.2301195101        2.2839543691        2.4357183640
 H         -3.3574795589        1.4063514880        1.5586495870
 H         -4.3750524910       -2.8070884631        0.0592309320
 H         -6.1818777052       -4.4312813662        0.0972323804
 H         -7.7267595237       -5.4549746449       -1.1913834328
 H         -8.8054225870       -4.3705377475       -2.0660267454
 H         -9.4645321611       -5.7455328404       -1.1744580270
 H         -7.7140990486       -5.4355006861        1.3652633640
 H         -8.7618824660       -4.3168093391        2.2337990566
 H         -9.4542159063       -5.7064039946        1.3911724653
 H        -10.9934267551       -4.3332574704        0.0996099158
 H        -10.4585886464       -2.9221557356       -0.8059197866
 H        -10.4451195486       -2.9032730593        0.9668209962
 H         -9.1119488425       -1.3050121622        0.0487374936
 H         -9.0958948346        1.3394579234        0.0171812926
 H         -7.7030864537        5.4382989700       -1.3587663674
 H         -8.8161096110        4.3374236229       -2.1668209215
 H         -9.4369103167        5.7437592972       -1.2965599753
 H        -10.4522391580        2.9563357995       -0.8135482835
 H        -10.9352024589        4.3940126995        0.0790586667
 H        -10.3741221775        2.9757248401        0.9575982836
 H         -8.6392392605        4.4102040165        2.1294994056
 H         -9.3321225032        5.7871699222        1.2669269684
 H         -7.5985332802        5.4822634217        1.1955825406
 H         -6.1281681694        4.4266584996       -0.1324439318
 H         -4.3424666413        2.7785254646       -0.1544675269
 H         -3.3555945486       -1.4387176409       -1.6289268685
 H         -1.2242969523       -2.3175425996       -2.5007193986
 H          1.2313820878       -2.3235107812       -2.4927268683
 H          3.3625850147       -1.4571614730       -1.6043224775
