114
 energy: -154.440296716782 gnorm: 0.000036114393 xtb: 6.7.1 (edcfbbe)
C            8.69244199487017        4.88158493981067       -1.52180266397610
C            8.84458522640002        4.09987677515910       -0.20911047362826
C            8.65713058588128        5.04666603822786        0.98496323384475
C           10.26908263151042        3.54115355814251       -0.15173011993049
C            7.78542619591931        3.00910991624294       -0.15212839482305
C            6.43339126838910        3.37707007740334       -0.18921839254139
C            5.40458254230647        2.45929441593114       -0.13801701713522
C            5.73542255638187        1.11597907269947       -0.03710710371821
C            7.08941377509130        0.71657724619269       -0.02222973806112
C            8.10385585081688        1.66172359723733       -0.07568634911244
C            7.08733039422889       -0.72010153950757        0.03840945322317
C            8.09898112320274       -1.66802346471255        0.09554178937992
C            7.77658800959002       -3.01449992595551        0.17138612133298
C            8.83252881557514       -4.10814742445141        0.23269408618692
C            8.67349209811651       -4.88870163826118        1.54526215987097
C           10.25875559597331       -3.55337543082193        0.18016726452537
C            8.64677941772587       -5.05508178994762       -0.96152457253576
C            6.42342882352596       -3.37872751349238        0.20392615452879
C            5.39733074481091       -2.45813846398989        0.14899976633125
C            5.73220146608338       -1.11576174724986        0.04894283365856
N            4.92587542359535        0.00123105749321        0.00455441197014
C            3.52187888313211        0.00309793344039        0.00370099507513
C            2.83883406625863        0.81541700255138        0.89676765273274
C            1.41466749337303        0.83903707896246        0.90922096311735
C            0.69745135683269        1.64554934934452        1.79325921471578
C           -0.69380405636475        1.64429439110185        1.79532973845447
C           -1.41217122312575        0.83800408183381        0.91201404480685
C           -2.83631908760466        0.81285858083824        0.90290377477102
C           -3.52113287466057        0.00769822930125        0.00449307408465
N           -4.92482570330459        0.00774302355831        0.00566653033433
C           -5.73307321996825       -1.10896405834728        0.02503713759273
C           -5.40125474133820       -2.45404403819414        0.09543158962520
C           -6.42914629981638       -3.37381450484423        0.12543125574760
C           -7.78155523495686       -3.00663488507845        0.09724448258220
C           -8.83957962519755       -4.09960532387648        0.12482933385289
C           -8.65124298839259       -5.01248177809435       -1.09527037428492
C           -8.68649598112563       -4.91750076972191        1.41513106038976
C          -10.26462560411923       -3.54089665392751        0.08318003729792
C           -8.10115627521623       -1.65806603971369        0.05489957179787
C           -7.08755485318723       -0.71106125003241        0.02299932811131
C           -7.08758948695883        0.72659908978725       -0.00308374144033
C           -8.10126758123987        1.67365822444877       -0.03060651250483
C           -7.78177269387490        3.02222392778519       -0.07388075186496
C           -8.83985269180019        4.11525264607007       -0.09659815825159
C           -8.69298490081279        4.93274014267423       -1.38787488034396
C          -10.26471042484982        3.55664307300489       -0.04777572337368
C           -8.64554822259792        5.02849498316434        1.12229640524975
C           -6.42947463694871        3.38934660386740       -0.10773261812422
C           -5.40151349294557        2.46952397412242       -0.08210048675186
C           -5.73311529077915        1.12445319520420       -0.01045217421943
C           -2.83764107701670       -0.79766940124176       -0.89472063758214
C           -1.41350181348014       -0.82387887603563       -0.90492014199677
C           -0.69636256882162       -1.63076157749957       -1.78869824629109
C            0.69490008831764       -1.63382362736681       -1.78695545807384
C            1.41339916421589       -0.82857851861454       -0.90279353353222
C            2.83761281359789       -0.80761996319792       -0.88989108816240
C            0.70594591026053        0.00574382005292        0.00323801735861
C           -0.70459925496113        0.00665732826498        0.00340472716331
H            9.45696264412391        5.65285461579391       -1.58961511160772
H            7.71969246121262        5.36061280850347       -1.58862971640912
H            8.80097070131989        4.21157931576824       -2.37224781245282
H            7.68329440685980        5.52755104301368        0.96198101065390
H            8.74257253170129        4.49449782443211        1.91866060121602
H            9.41981940855134        5.82259040191149        0.97146297196560
H           10.98210525241894        4.36250354913857       -0.18793867307231
H           10.43685135970785        2.99165763882276        0.77171309776811
H           10.46775050301967        2.88774466843177       -0.99810498288966
H            6.17170349837574        4.42140680603487       -0.26548682165901
H            4.37504535661484        2.78077115220326       -0.18665213083624
H            9.12631300616623        1.32295052375649       -0.06116578503134
H            9.12241043662961       -1.33206820548622        0.08440464588132
H            9.43571585780267       -5.66194841947801        1.61633069942007
H            8.78065590743125       -4.21849450077446        2.39572259388132
H            7.69923951198925       -5.36511839850739        1.60877748099748
H           10.96937783911245       -4.37666877079858        0.21930676418726
H           10.43134977693030       -3.00476928534335       -0.74291510191902
H           10.45618196899809       -2.90012506713781        1.02695534184837
H            7.67146459159433       -5.53311037642145       -0.94191328631052
H            9.40714389738912       -5.83321979121784       -0.94471603565910
H            8.73732870756985       -4.50371518577703       -1.89521333650513
H            6.15860320607914       -4.42231563050484        0.27960319664637
H            4.36676241691915       -2.77678163757637        0.19428563432366
H            3.38190570775346        1.41766335419427        1.60856500089805
H            1.23440160686521        2.27902982948335        2.48435955019357
H           -1.22981730224167        2.27644407023386        2.48837848996501
H           -3.37774464978532        1.40899135875521        1.62100140221815
H           -4.37166964082687       -2.77621504389791        0.13704241460711
H           -6.16625741775646       -4.41937212604573        0.17683413092242
H           -7.67659297601768       -5.49219932883441       -1.08607511740116
H           -8.73794241571426       -4.43461507558896       -2.01317422152312
H           -9.41271410300017       -5.78967569207680       -1.10313927452728
H           -7.71362895130240       -5.39800502566419        1.46810617761975
H           -8.79480166855934       -4.27150907472331        2.28397792375513
H           -9.45076149187777       -5.69059169436124        1.46176283036924
H          -10.97685515161381       -4.36360962535632        0.09721839221616
H          -10.43327648309417       -2.96662316708175       -0.82489805989940
H          -10.46356720218063       -2.91095748169004        0.94710500841242
H           -9.12388340363904       -1.31983863343918        0.05007627396248
H           -9.12398420617744        1.33548477035437       -0.02162809734127
H           -7.72021471835326        5.41286945021921       -1.44584665481265
H           -8.80586476948998        4.28654297062951       -2.25598649943495
H           -9.45721145441138        5.70607931966442       -1.43088828473670
H          -10.46807968520735        2.92672918959618       -0.91068516697495
H          -10.97694470307751        4.37940557066949       -0.05820986785354
H          -10.42879148059289        2.98236903056273        0.86114102892254
H           -8.72750283052518        4.45085756867178        2.04078017385685
H           -9.40713746735145        5.80552795457379        1.13379343403303
H           -7.67107725666585        5.50844726457726        1.10807799826137
H           -6.16675832546903        4.43489827487469       -0.16013017167743
H           -4.37208150088783        2.79162765273245       -0.12787866706077
H           -3.38007132284607       -1.39348395849763       -1.61232261776724
H           -1.23333757488224       -2.26213873795450       -2.48170770224644
H            1.23084539795506       -2.26793102098848       -2.47826169460134
H            3.37979520459938       -1.41096028272702       -1.60143876476001
