114
 energy: -154.513575187560 gnorm: 0.000102458605 xtb: 6.7.1 (edcfbbe)
C            8.68174368864020        4.87987562837509       -1.52541536934214
C            8.83258887938499        4.09668732161884       -0.21359898975669
C            8.64840620907236        5.04292820495901        0.98129121285463
C           10.25589620119874        3.53483596134109       -0.15783268624850
C            7.77127187003927        3.00735828884293       -0.15606923948415
C            6.42013830753312        3.37779410904189       -0.19462484256690
C            5.38918108923991        2.46225048597423       -0.14193071125610
C            5.71627784219309        1.11918725068577       -0.03775569816862
C            7.06825214293520        0.71721715330862       -0.02282523757264
C            8.08569801936240        1.66095478106792       -0.07753014454395
C            7.06575788439651       -0.71829889859257        0.03809703328100
C            8.07980348868354       -1.66542997695958        0.09737958348871
C            7.76052367991613       -3.01073782351451        0.17512229116905
C            8.81783501672834       -4.10360752228214        0.23869825796193
C            8.65878353047842       -4.88366211274544        1.55143675221774
C           10.24328521074074       -3.54676820045008        0.18764465372708
C            8.63535999977019       -5.05153854155928       -0.95509008563943
C            6.40801503651509       -3.37663075102395        0.20812776771901
C            5.38037568769605       -2.45765927239641        0.15085752448359
C            5.71241243205788       -1.11574718226582        0.04762724191323
N            4.90341618994667        0.00307537443480        0.00320391314552
C            3.50372782559843        0.00491766516767        0.00211969991611
C            2.81105804201193        0.82659825363976        0.88478477323711
C            1.41861602130930        0.84555104465437        0.89465029252410
C            0.67749809480548        1.67619976731163        1.78767149688673
C           -0.67508746847665        1.67377342519367        1.79023831151663
C           -1.41659600439898        0.84219213415834        0.89836288839019
C           -2.80896956874656        0.82073804984852        0.89153631859480
C           -3.50277825449850        0.00534679072796        0.00364667285712
N           -4.90210575853239        0.00559988584919        0.00447471177367
C           -5.71386471176394       -1.11243182007890        0.02113726135607
C           -5.38617536240591       -2.45764958080573        0.09123320941855
C           -6.41641128385463       -3.37511045424077        0.12018745963118
C           -7.76784043047865       -3.00510530786940        0.09174370599098
C           -8.82822656245675       -4.09654567630445        0.11609746952279
C           -8.64335654537899       -5.00449061336721       -1.10808944774066
C           -8.67650509289721       -4.92054913208361        1.40252603862777
C          -10.25196561779661       -3.53431946313993        0.07818162401286
C           -8.08310872337243       -1.65722707164702        0.05175078066385
C           -7.06628084695294       -0.71176810514911        0.02098889234799
C           -7.06571995542129        0.72481844526048       -0.00153685043765
C           -8.08180801025818        1.67122654718677       -0.02683188306407
C           -7.76542049583578        3.01877636407655       -0.06876451331856
C           -8.82479411056591        4.11129715190588       -0.08651516228063
C           -8.68223796663543        4.93322330337124       -1.37529187509620
C          -10.24879188689595        3.55069305141829       -0.03640980476037
C           -8.62929977534393        5.02080522172149        1.13487557572960
C           -6.41383171144342        3.38750160623977       -0.10546238375901
C           -5.38433026486423        2.46910747959263       -0.08149220582772
C           -5.71299588255263        1.12429913774494       -0.00855935920867
C           -2.80956888826116       -0.80972594523888       -0.88493581699255
C           -1.41715697488413       -0.83067781477669       -0.89293303064422
C           -0.67615998403556       -1.66174302837577       -1.78566443560014
C            0.67643131045949       -1.66398357904078       -1.78405136881273
C            1.41806758268934       -0.83341088475880       -0.89136918552110
C            2.81051598863339       -0.81561224064763       -0.88119722248777
C            0.70727796679170        0.00619574739446        0.00172108511808
C           -0.70563013086078        0.00578491414141        0.00248289475013
H            9.44735720162034        5.65019634497385       -1.59290784050659
H            7.70966239644588        5.36042486075746       -1.59177051322773
H            8.78906114187119        4.21036418702904       -2.37643018885296
H            7.67474926344874        5.52441001185726        0.96020591863225
H            8.73482719829388        4.48990185203675        1.91442503617747
H            9.41161896666402        5.81843167105469        0.96735655574549
H           10.97099099205126        4.35441307738714       -0.19524123565307
H           10.42336272479875        2.98502175037432        0.76547113510662
H           10.45160072246419        2.88045834141343       -1.00414928414381
H            6.16009403951111        4.42252292834592       -0.27331028040157
H            4.36113547728041        2.78884463039117       -0.19396991258635
H            9.10693980769472        1.31849783016880       -0.06259365803931
H            9.10225056272119       -1.32642047206191        0.08667206058074
H            9.42196608204000       -5.65590952558717        1.62419698373765
H            8.76387645244471       -4.21261826608993        2.40152302766215
H            7.68507005229962       -5.36138881656746        1.61419080441593
H           10.95535995564043       -4.36882383263316        0.22816283898793
H           10.41595678641910       -2.99819112277697       -0.73543785787926
H           10.43825578185207       -2.89248164941744        1.03419989703001
H            7.65932429099279       -5.52832991588463       -0.93819729769271
H            9.39474533785459       -5.83066155716009       -0.93535004643039
H            8.72944486147736       -4.50101935081274       -1.88896481389585
H            6.14412503134600       -4.42042141161916        0.28639664887263
H            4.35106331075255       -2.78082435021538        0.19899952105362
H            3.35994940550226        1.44372414215705        1.58085346133173
H            1.22952050294321        2.31046573511977        2.46671941878509
H           -1.22676529087409        2.30606170742728        2.47142109280725
H           -3.35669694454209        1.43204910910985        1.59352844403267
H           -4.35825694236998       -2.78559712159243        0.13532711640202
H           -6.15536487942471       -4.42132302987849        0.17083218492770
H           -7.66892448878860       -5.48486290840140       -1.10266788206793
H           -8.73113379929184       -4.42252090702687       -2.02333363920117
H           -9.40541640242340       -5.78118232471106       -1.11816430553649
H           -7.70488246845365       -5.40397677654426        1.45256044635450
H           -8.78214110433193       -4.27796889223610        2.27424960019668
H           -9.44278497693306       -5.69188646828659        1.44674614052332
H          -10.96642844336453       -4.35521150127769        0.09007109956268
H          -10.42007139400105       -2.95610014341175       -0.82748299811282
H          -10.44794818300854       -2.90681813119108        0.94455292644303
H           -9.10453696826828       -1.31503110028664        0.04808498284146
H           -9.10353775018303        1.33004381165678       -0.01742307334069
H           -7.70998582019292        5.41439835551549       -1.43418698424952
H           -8.79663259133509        4.28969094511154       -2.24520620862865
H           -9.44719648645696        5.70616487564981       -1.41408278933189
H          -10.45264989240667        2.92265743675312       -0.90056666877326
H          -10.96244573141267        4.37234612479438       -0.04312324627126
H          -10.40996206138390        2.97342093059549        0.87112144297408
H           -8.70920311411500        4.43998231084901        2.05156764234612
H           -9.39117624258699        5.79757529881840        1.15055883389357
H           -7.65494499260322        5.50113396673494        1.12045513845660
H           -6.15210110702352        4.43340926987712       -0.15867181740698
H           -4.35632999802278        2.79595030421107       -0.13159323395953
H           -3.35770590534478       -1.42101058426759       -1.58661773165872
H           -1.22824496144291       -2.29395055783627       -2.46658442038388
H            1.22806000819894       -2.29820229646863       -2.46346111197847
H            3.35903328207268       -1.43324050791329       -1.57710919865803
