114
 energy: -154.512980767922 gnorm: 0.000078388796 xtb: 6.7.1 (edcfbbe)
C            8.34831421006487        5.51739388304344       -0.27502016441244
C            8.86203738722149        4.07654801820217       -0.20896515914721
C            9.73128261504363        3.93997217888982        1.04927365839676
C            9.71460768261210        3.81834258149283       -1.45947961985649
C            7.74059456072390        3.04839126083465       -0.15159014989582
C            6.39033943401679        3.40817679240854       -0.17687222302822
C            5.36884800237704        2.47752878484293       -0.12029384734686
C            5.70612648527778        1.13808750601892       -0.02629702699688
C            7.06259396704377        0.74595429208967       -0.02527505887485
C            8.06559808830185        1.70013260676527       -0.08331418040387
C            7.07168729984856       -0.69022510076145        0.02648683435844
C            8.09368021349737       -1.62921626827935        0.06886139251022
C            7.78612320253618       -2.97780103207207        0.13985123896604
C            8.85292875941422       -4.06238829568354        0.18306370116658
C            8.66197453989344       -5.00541468858573       -1.01333831737030
C            8.71797683234526       -4.85073355744124        1.49353364914539
C           10.27306889981480       -3.49376601479861        0.11548221931511
C            6.43710099083657       -3.35439218641497        0.18501343828309
C            5.40159937102462       -2.44317130977714        0.14427886257114
C            5.72169555645464       -1.09801400071612        0.04594839746098
N            4.90302865350328        0.01447039947370        0.01567634578962
C            3.50348986412683        0.00497037039337        0.01951946264293
C            2.80703450808727        0.82016255742673        0.90527503482291
C            1.41451165649643        0.83137063056575        0.91658697735422
C            0.66965926321812        1.65792050480551        1.81031175382135
C           -0.68292099649672        1.65099493877826        1.81141472287200
C           -1.42073883184711        0.81771032536830        0.91809182994269
C           -2.81308427782691        0.79322633267246        0.90824053322009
C           -3.50296086637109       -0.02519571274456        0.02017229709680
N           -4.90237633319004       -0.02702539797998        0.01641053215923
C           -5.71276578912427       -1.14615139663698        0.03568323130464
C           -5.38521748564251       -2.48877060311772        0.11879112856123
C           -6.41307269447035       -3.41364889538845        0.14895225605564
C           -7.76059934196566       -3.04523280452531        0.10808519346699
C           -8.88896483528132       -4.06709708834751        0.13210744648585
C           -8.38506794663940       -5.51182775871799        0.18810806483524
C           -9.76282922941501       -3.82038838324741        1.37013383766051
C           -9.73413893765835       -3.90830050633894       -1.13989529202025
C           -8.07629970515663       -1.69414804519882        0.05364223107023
C           -7.06672256549355       -0.74570700910890        0.02202091466564
C           -7.06664951304986        0.69099159784544       -0.01270956214731
C           -8.08278315515917        1.63629595671629       -0.05580674871405
C           -7.76684987556871        2.98379214523363       -0.10794780875190
C           -8.82681854654347        4.07508525033080       -0.14956875789922
C           -8.64262104085974        5.00290450307678        1.05969781942220
C           -8.67375218580572        4.87775814104660       -1.44927397473254
C          -10.25077059262444        3.51399867566149       -0.10310361681639
C           -6.41528457769044        3.35279359150244       -0.13485669466875
C           -5.38553108757072        2.43511269221017       -0.09291214347589
C           -5.71415791896077        1.09082276373167       -0.01199738757427
C           -2.80613094404747       -0.84071433431839       -0.86511790580910
C           -1.41367776756004       -0.85674416760779       -0.87184302553818
C           -0.66890681543749       -1.68515586947830       -1.76391773738366
C            0.68366320020850       -1.68031576504266       -1.76314431209262
C            1.42148282235661       -0.84578673779025       -0.87099377928466
C            2.81377044379915       -0.81898733106781       -0.86342960075555
C            0.70688268332383       -0.01065967750552        0.02325681177904
C           -0.70601316847381       -0.01677881746594        0.02337523613784
H            9.19413181630405        6.20165915999014       -0.30597669807331
H            7.75176548602114        5.76145570821100        0.60102394570899
H            7.75276550674859        5.68092336343964       -1.17023383828601
H            9.12945368891332        4.10405780255995        1.94084901884097
H           10.17716716815577        2.95170971382080        1.11772602258220
H           10.53340089256835        4.67514315698058        1.03381570455823
H           10.51343770435551        4.55401325210428       -1.52849744631267
H           10.16403297065573        2.82958718354647       -1.43540083493044
H            9.09975008170175        3.89076062311497       -2.35430871339531
H            6.11163331279833        4.44656711053371       -0.24746784925470
H            4.33785285176972        2.79620702071620       -0.16235817368870
H            9.09469994603977        1.37523058691017       -0.07982563527113
H            9.11323684632649       -1.28190830369803        0.05016231813145
H            9.42944052271066       -5.77684296930077       -1.00959854434254
H            7.69122024266420       -5.49234872112812       -0.98446126932816
H            8.73631483265547       -4.44868449849928       -1.94534301579391
H            9.48754143236395       -5.61792278577995        1.55121631013234
H            8.83031773255354       -4.18362138545390        2.34581915744319
H            7.74853117982500       -5.33561673116012        1.56717097517828
H           10.42809089149072       -2.93804476747408       -0.80652011536412
H           10.99229320180486       -4.31020329477711        0.14068846036755
H           10.47483451395630       -2.84329625342446        0.96342776411751
H            6.18217433482364       -4.40071493686112        0.25925994279499
H            4.37551897458296       -2.77505420141360        0.20101446313539
H            3.35306769660972        1.43919726179106        1.60185258503165
H            1.21882503013120        2.29349834800955        2.49045061124554
H           -1.23742494135891        2.28080926146019        2.49259045923969
H           -3.36391299525371        1.40472094826163        1.60767899427384
H           -4.35702370414272       -2.81468204337971        0.17208063169423
H           -6.14170629487769       -4.45455527133438        0.21057522759034
H           -7.80613461174707       -5.69066332676231        1.09125912571937
H           -7.77486866637249       -5.74816223952169       -0.68061968307622
H           -9.23535468895655       -6.19119615068257        0.19539718525802
H           -9.16492932903513       -3.90817748831335        2.27501109824736
H          -10.20633359151952       -2.82886578542896        1.35099901337904
H          -10.56686696718481       -4.55226016266210        1.41472728750421
H          -10.54101062256326       -4.63835786437758       -1.14893530908358
H           -9.11707733348645       -4.06450173789948       -2.02243375843327
H          -10.17238082316018       -2.91628078629704       -1.20330127696835
H           -9.10321545886087       -1.36269436558249        0.03977357519968
H           -9.10442433283601        1.29467841883395       -0.05239482979540
H           -8.72980607951802        4.43585095211890        1.98431324218280
H           -7.66881461206892        5.48433941401083        1.04643675328915
H           -9.40547803770053        5.77886972576411        1.05711766762455
H           -7.70089943723086        5.35787122146349       -1.50724203346166
H           -9.43831375986938        5.64998680434706       -1.50587686427145
H           -8.78102048210002        4.22129068477539       -2.31040678412098
H          -10.44766381585417        2.87479331894081       -0.96068876229579
H          -10.96492919938618        4.33492063106362       -0.12589163837466
H          -10.41838158330211        2.94837555277370        0.81061920292664
H           -6.15346997165478        4.39830720162992       -0.19517755893892
H           -4.35721502606318        2.76199360541074       -0.13581559712080
H           -3.35166148412932       -1.45557547781450       -1.56572529877446
H           -1.21813501977754       -2.32037530431476       -2.44434243957530
H            1.23819584826332       -2.31162788503676       -2.44289773215611
H            3.36476399571391       -1.43173081946072       -1.56169300126118
