114
 energy: -154.440298008656 gnorm: 0.000101263162 xtb: 6.7.1 (edcfbbe)
C            8.67841006915682        4.89132252521066       -1.51972207761587
C            8.83265102190538        4.10682503441912       -0.20894280356863
C            8.64209393773387        5.05013138211318        0.98741588163168
C           10.25882948158011        3.55232283035512       -0.15254568226923
C            7.77678354247171        3.01272649865850       -0.15474619821984
C            6.42367260619077        3.37679239827655       -0.19055095224000
C            5.39757060093183        2.45592946043851       -0.14063480670893
C            5.73228234752799        1.11337326917303       -0.04237188188042
C            7.08743185819518        0.71786438660901       -0.02983621698455
C            8.09912057298182        1.66606987936005       -0.08182513532170
C            7.08952272759273       -0.71896344824711        0.02765661447856
C            8.10405068714277       -1.66404471693214        0.08074409170358
C            7.78579043160491       -3.01165238092194        0.15393237780880
C            8.84505203569557       -4.10236630045881        0.21020948353985
C            8.69122724206494       -4.88665219958504        1.52117744207847
C           10.26955506505869       -3.54335438886378        0.15584031850687
C            8.65946620302691       -5.04692311303271       -0.98592254080364
C            6.43376508008552       -3.37985040919855        0.18843063577307
C            5.40487321101526       -2.46213857087609        0.13741883481740
C            5.73553401153711       -1.11856517171796        0.03943129544179
N            4.92589738742587       -0.00379073748009       -0.00167046635466
C            3.52191302238619       -0.00511494572980       -0.00042298990859
C            2.83862870106482        0.80654219299321        0.89315330439912
C            1.41446603582095        0.82935794896147        0.90622153998289
C            0.69719754013011        1.63688688406505        1.78931338154644
C           -0.69404134137751        1.63566242012089        1.79127995253618
C           -1.41235747219783        0.82812308033786        0.90905390955297
C           -2.83652480881610        0.80358696268510        0.89934486020257
C           -3.52132189096149       -0.00254742265718        0.00180247399493
N           -4.92504112483717       -0.00053246879256        0.00144182966669
C           -5.73527792729770       -1.11575263902404        0.02190613320008
C           -5.40597062253606       -2.46126301819649        0.09564181117100
C           -6.43553581716595       -3.37917800445602        0.12566763818965
C           -7.78724361372082       -3.00969788321708        0.09418367373093
C           -8.84726941958677       -4.10074154663244        0.12161605677925
C           -8.65754777420866       -5.01680575415709       -1.09588645732921
C           -8.69889729409839       -4.91593311245054        1.41417668278637
C          -10.27122925544271       -3.53965226133459        0.07499635232154
C           -8.10437888225402       -1.66063273081226        0.04871925074962
C           -7.08907328854317       -0.71547048879153        0.01678293524248
C           -7.08654258064741        0.72214750212571       -0.01248909937241
C           -8.09846750023438        1.67096442176654       -0.04387748846629
C           -7.77650209507231        3.01886416699050       -0.09001474670664
C           -8.83255964734022        4.11374754139248       -0.11735992825783
C           -8.68247899019790        4.92701016267858       -1.41094729432034
C          -10.25849691581416        3.55789061346930       -0.06866921641543
C           -8.63825549915985        5.03041012903228        1.09896436749079
C           -6.42349809420662        3.38346536980001       -0.12267057693954
C           -5.39723676339636        2.46185948462714       -0.09302686477416
C           -5.73134542819393        1.11756702676088       -0.01859764295772
C           -2.83777597971050       -0.81018754860130       -0.89535871810197
C           -1.41361509498305       -0.83686160404491       -0.90499767209603
C           -0.69633884764979       -1.64534367844135       -1.78722893740332
C            0.69492308234637       -1.64764425045394       -1.78607049723545
C            1.41341917071501       -0.84030025742593       -0.90380570158019
C            2.83766601662252       -0.81742046106574       -0.89259479204411
C            0.70582109290977       -0.00528316583037        0.00146033467992
C           -0.70474331904957       -0.00472989042423        0.00186953844696
H            9.44006779347106        5.66563928945564       -1.58498492921831
H            7.70391042863025        5.36686085251812       -1.58596247395139
H            8.79004703321102        4.22395977576195       -2.37184025563343
H            7.66664179678647        5.52777754313284        0.96566486220288
H            8.72950168466127        4.49607208911858        1.91981220554427
H            9.40214453630708        5.82866989101346        0.97566901195263
H           10.96932008938719        4.37595061933316       -0.18674750296318
H           10.42809419524336        3.00124416297712        0.76968279363153
H           10.45969750522032        2.90146227479051       -1.00035559525152
H            6.15886749501440        4.42050169497014       -0.26462756184487
H            4.36711239512107        2.77458844608437       -0.18823719017046
H            9.12258364379698        1.33027354044274       -0.06872084897915
H            9.12648105562103       -1.32509385077141        0.06843484965037
H            9.45611852328766       -5.65757459713562        1.58876936397253
H            8.79795136420623       -4.21821015811947        2.37307872012622
H            7.71867544904417       -5.36642352166609        1.58547897872137
H           10.98261796414117       -4.36470400375444        0.19135926509749
H           10.43850708507311       -2.99199585803955       -0.76627854053872
H           10.46702697370725       -2.89161919275276        1.00378000529448
H            7.68518225278986       -5.52702593029807       -0.96595418388871
H            9.42147667214729       -5.82351272100889       -0.97203370004278
H            8.74746681178279       -4.49324118002237       -1.91848545676262
H            6.17210341462439       -4.42435909271666        0.26243686449773
H            4.37535994361143       -2.78396356060963        0.18410880840325
H            3.38164079398758        1.40939766659432        1.60447363748619
H            1.23424943895753        2.27135207036221        2.47943589822562
H           -1.23023073491950        2.26887161454885        2.48322885244998
H           -3.37807534257326        1.40130321827065        1.61603509178941
H           -4.37700883863257       -2.78511891219382        0.13969373761672
H           -6.17456384737284       -4.42508666185021        0.17971150239053
H           -7.68364075443405       -5.49794016631889       -1.08338414015869
H           -8.74137891826797       -4.44104095058686       -2.01537758717881
H           -9.42013430939651       -5.79291210520271       -1.10356187234268
H           -7.72679196628502       -5.39754234245169        1.47098277701275
H           -8.80887825397632       -4.26789395599740        2.28128674762472
H           -9.46428748260695       -5.68794257452024        1.46031414275616
H          -10.98489345561879       -4.36113014413119        0.08867325278056
H          -10.43642776361260       -2.96684394805507       -0.83464344542700
H          -10.47147897549345       -2.90772266544209        0.93715921928614
H           -9.12651913768256       -1.32067314684919        0.04134386735397
H           -9.12182506445643        1.33470561522782       -0.03560095434263
H           -7.70878442389993        5.40525168609375       -1.46904250486048
H           -8.79533376088809        4.27839062719585       -2.27725334560300
H           -9.44528551187418        5.70155325491316       -1.45733047769916
H          -10.46194694733762        2.92573808961190       -0.92991293936760
H          -10.96917931417900        4.38194452196737       -0.08254822953373
H          -10.42482143432276        2.98670385708595        0.84178579848821
H           -8.72307062575015        4.45593389803668        2.01916785657686
H           -9.39812309707550        5.80917754964829        1.10665299037085
H           -7.66271103608892        5.50816323578936        1.08487088832903
H           -6.15879679984232        4.42839804927489       -0.17740523586343
H           -4.36714463340601        2.78198227343892       -0.13797138989625
H           -3.38020560357515       -1.40702424268425       -1.61211797263774
H           -1.23336442910356       -2.27826790443846       -2.47879494418481
H            1.23101409505897       -2.28263702682957       -2.47646039825632
H            3.37977822658941       -1.42028124455553       -1.60459689719243
