61
 energy: -95.453929879060 gnorm: 0.000056645543 xtb: 6.7.1 (edcfbbe)
C           -4.86188596580195       -2.78992068189537       -2.23585369904728
C           -4.67507545997631       -1.41972926934583       -1.99298829018848
C           -3.45561019834904       -0.96305363652641       -1.57977927206875
C           -2.37897292927648       -1.87792910841932       -1.36771647893294
C           -1.09628445172001       -1.52199418530507       -0.90378195053480
C            0.00095183469660       -2.41084591749003       -1.13662642017551
C            1.28942856435674       -2.05164517118497       -0.90825196986763
C            1.59914798433876       -0.76042853182824       -0.39707467747736
N            2.91604322370773       -0.38598076703667       -0.16000641762220
C            3.48305643504640        0.82896340522703       -0.49441087908226
C            2.93239026903201        1.90053698150841       -1.18472259653793
C            3.73226289582250        3.00342691531658       -1.41851509154706
C            5.05678202204001        3.04224467115232       -0.98562541126879
C            5.62292617138658        1.96577701753459       -0.32605375688755
C            4.83880036798711        0.84789672097239       -0.08177561995120
C            5.09309843022612       -0.42523421903917        0.53458420965833
C            6.20937137914560       -0.98865081539659        1.13461158061065
C            6.10197851435906       -2.25797747818565        1.67484959369087
C            4.89435158391732       -2.95305676439061        1.63984950758251
C            3.76838722678034       -2.41211274637715        1.04677388004583
C            3.87797670222553       -1.15290004008208        0.46993936212757
C            0.54492939142434        0.09870975151718       -0.06366751477812
C           -0.76639746017934       -0.26881974990718       -0.25319476011501
N           -1.77141032721188        0.55318944546527        0.26980852647672
C           -2.74170541331128        0.15200051894915        1.16850157258139
C           -2.96247235887173       -1.10125706148723        1.72218572927931
C           -4.00878438771210       -1.23398344436315        2.61544676777877
C           -4.80973421035715       -0.14798223630499        2.96331495986728
C           -4.57782874742382        1.10825119367178        2.43332201257478
C           -3.53409348808835        1.26597813913309        1.53315031167085
C           -3.00221986069983        2.39569909271586        0.81869095468544
C           -3.35288986953535        3.73610831634114        0.74669315893108
C           -2.62367468087236        4.56905992048880       -0.08280704329303
C           -1.56814136621287        4.07655710453855       -0.84807351427758
C           -1.20081657407732        2.74545219165694       -0.79271850076945
C           -1.91080699514834        1.90917923986203        0.05847432495033
N           -2.58266848821414       -3.19850114937696       -1.67492978497407
C           -3.75107028422106       -3.61346346715445       -2.07912580025512
H           -5.81397799186354       -3.18901274719687       -2.54399231717642
H           -5.48924039331572       -0.72750014597323       -2.15875382920082
H           -3.28074640159148        0.09622710578680       -1.48422831082319
H           -0.24145853367837       -3.37664870247241       -1.55132539123798
H            2.09798112746023       -2.72124707047126       -1.15859496459875
H            1.91601455175567        1.86731181667612       -1.54346185381428
H            3.32428795200929        3.84968600161223       -1.95093245921254
H            5.65052215318567        3.92272629619354       -1.18163764310404
H            6.65553811821359        1.99028022936907       -0.01233833296775
H            7.13993371614962       -0.44361614038193        1.18245805457791
H            6.96062544164358       -2.71432941270134        2.14464139150563
H            4.83426006691248       -3.93206938792109        2.09155250287049
H            2.83155795529652       -2.94723795147881        1.04988376304306
H            0.76381921992897        1.02904600888525        0.44129957251864
H           -2.34119717968472       -1.94386671930817        1.46044879598360
H           -4.20649931490354       -2.19980728094564        3.05648069089562
H           -5.61891241691306       -0.29201203101686        3.66395526968649
H           -5.19173639035980        1.95044225993380        2.71509698941329
H           -4.18206729487136        4.11707018384391        1.32343863130631
H           -2.88038129873659        5.61592577238549       -0.14966501575339
H           -1.02908160552444        4.74747932000008       -1.50036758917257
H           -0.39749724058522        2.36340171176930       -1.40317357907872
H           -3.82153217068866       -4.67780114094557       -2.27629135957347
