61
 energy: -95.549155904047 gnorm: 0.000029121959 xtb: 6.7.1 (edcfbbe)
C           -4.92464095003971       -3.07571060992441        0.08097747699542
C           -4.15564434089808       -3.55862301083162       -0.96688126411952
C           -2.85014756236809       -3.11931945971000       -1.09738066149697
C           -2.35617795480009       -2.19919290873527       -0.17185183030358
C           -0.97509871793396       -1.69201241902078       -0.25737277770531
C            0.07648631846084       -2.55854242925722       -0.54303590173087
C            1.38441414482895       -2.11792269153022       -0.57154102782578
C            1.67414378467233       -0.78132319212591       -0.30549487988900
N            2.99665808579472       -0.32419384319670       -0.32774849595199
C            4.06488299543219       -0.90887904520883        0.32699277898655
C            4.08690103148895       -2.00066171149262        1.18334085738418
C            5.30116020214183       -2.36494730419095        1.73415125966815
C            6.46919832889537       -1.65973654924566        1.45144950625617
C            6.44894015243365       -0.55724100409193        0.62011354302734
C            5.23991758575157       -0.17134846984095        0.05523909444841
C            4.85439959784645        0.90651215909678       -0.81333871858908
C            5.55708591629209        1.93629445283093       -1.42603466658110
C            4.86943613924742        2.81296891202444       -2.24174764966124
C            3.50148820321198        2.66387622082426       -2.46044716738948
C            2.78095872918740        1.64762517102553       -1.86153816769542
C            3.46176167871309        0.77814929527041       -1.02110560040833
C            0.63412409553020        0.10033754934627       -0.03080988777091
C           -0.68145381320915       -0.34267101081481       -0.01135726257616
N           -1.70550840657916        0.58279975460154        0.23632937044315
C           -1.85019773532040        1.33764183207948        1.38158835992476
C           -1.03014077469571        1.41344117371071        2.49773107388568
C           -1.41697152569332        2.25196010585638        3.52600589855560
C           -2.59321833134299        2.99588764433393        3.45418160350133
C           -3.42170773342243        2.91104108696162        2.35252898623110
C           -3.05445065828453        2.07470310848549        1.30583170153341
C           -3.66128110608683        1.73601732771060        0.04843230396783
C           -4.83147662465057        2.12700892401614       -0.58954650298363
C           -5.11512236816319        1.60151448652894       -1.83496243238558
C           -4.23979528552342        0.71151086612336       -2.45432024170035
C           -3.06818233621092        0.31039384315008       -1.84130359268436
C           -2.79529048568119        0.80880064259493       -0.57558037535779
N           -3.09778058991521       -1.74357757988187        0.83525229940641
C           -4.33957743493401       -2.17066672613017        0.95393822067214
H           -5.94744508274729       -3.39000774944896        0.21719513699416
H           -4.56892671894647       -4.26392879751712       -1.67378312961303
H           -2.22962087190624       -3.46145398843050       -1.91158491633655
H           -0.13515954088481       -3.60162692529951       -0.72494165000936
H            2.18479677657951       -2.80183071521465       -0.80805721875955
H            3.18517944099905       -2.54350148107759        1.42330893856963
H            5.34461945908983       -3.21337938988229        2.40149078828259
H            7.39953719600196       -1.97812764346188        1.89845938049896
H            7.35124562558728       -0.00108286812012        0.41424172004878
H            6.62016901432682        2.04200962378292       -1.26930612125518
H            5.39657370526109        3.62198603514558       -2.72583573552214
H            2.99240139594900        3.35552371036056       -3.11583596638897
H            1.72475951109365        1.53295577836962       -2.05308332642572
H            0.84604346966525        1.13896075623875        0.17436956137439
H           -0.12396268836970        0.83053967113389        2.56696494526043
H           -0.79524264837309        2.33097203012813        4.40611784512634
H           -2.86034182293496        3.64220390122616        4.27753810283521
H           -4.33867469493336        3.47948397820061        2.30358993615182
H           -5.50344875942014        2.82980066020998       -0.11959736128101
H           -6.02323974177118        1.88873883800137       -2.34472107146377
H           -4.48028697193055        0.33016762894975       -3.43628643250190
H           -2.38827149020912       -0.36950735681156       -2.33338256934634
H           -4.88879781627612       -1.76080628781443        1.79245491367857
