61
 energy: -95.549547163315 gnorm: 0.000109314188 xtb: 6.7.1 (edcfbbe)
C           -4.91682336949309       -2.69790087755280       -1.83692109494555
C           -4.61389134170723       -1.35722341081840       -2.02078906910342
C           -3.33672523825812       -0.91215562896592       -1.73094610026675
C           -2.39860890169863       -1.82919395157544       -1.25423129212359
C           -1.01849185322818       -1.43383204097692       -0.92249917799241
C            0.03490100638823       -2.25029421575613       -1.32669790298896
C            1.34748456744389       -1.90036602266465       -1.08799714420182
C            1.64005839273736       -0.71771827216057       -0.41014875315951
N            2.96825410339301       -0.36000282047941       -0.15249634922563
C            3.54434208975355        0.87010696419524       -0.40955542487588
C            2.99564872872412        1.99825126064633       -1.00152350678518
C            3.80920604977500        3.10212843777401       -1.17271521920250
C            5.14472762241782        3.08829045218413       -0.77612957400668
C            5.70429503738936        1.96052844249500       -0.20849013050786
C            4.90457472237539        0.83966343380909       -0.02525947779908
C            5.15154716227652       -0.47514104506690        0.49901759183966
C            6.27174855736685       -1.09004033823146        1.04379270114659
C            6.16092305223008       -2.39246479966209        1.48880541447085
C            4.94861843438211       -3.07488619900488        1.41019286310523
C            3.82083405111533       -2.48431249917461        0.87176818190966
C            3.93273046277209       -1.18439988998341        0.39885601853273
C            0.59822750720807        0.09076282017945        0.03244438475638
C           -0.72220015687390       -0.25996681087661       -0.21641488821052
N           -1.75000139326720        0.54786420423841        0.29908708353962
C           -2.76118366207806        0.12204972914121        1.13722382513879
C           -2.96176232021833       -1.12495227589435        1.71113780800045
C           -4.06096995294525       -1.28457306627644        2.53267157545912
C           -4.93535688852699       -0.23039345549847        2.79176915979137
C           -4.72411099181724        1.01953165818493        2.24473097351651
C           -3.62669029229586        1.20499385756516        1.41308315791365
C           -3.10262791553086        2.33816527705591        0.70170176691249
C           -3.50966923235416        3.65978815563941        0.56851456902166
C           -2.76555533280126        4.50542010848969       -0.23073709725569
C           -1.63535151833398        4.04632770668885       -0.90443322502742
C           -1.21201176843928        2.73597719378245       -0.78905328512030
C           -1.94194364970871        1.88789221675070        0.03083344590518
N           -2.68581531722140       -3.12149635415644       -1.11006170878835
C           -3.90684212592993       -3.53635536932685       -1.39075509478615
H           -5.90297916613051       -3.08320753491317       -2.04295720920490
H           -5.36105094171165       -0.66789531074416       -2.38691790136113
H           -3.06755052678314        0.12103261650627       -1.88714283040216
H           -0.19952544689396       -3.16222217138780       -1.85357553849159
H            2.15198969251765       -2.52905017362156       -1.43664957612885
H            1.96827310777630        2.01349547934698       -1.32995675406510
H            3.40153116341397        3.99341453307023       -1.62714701528809
H            5.74897538397458        3.97116095313914       -0.92499755278958
H            6.74350065647972        1.94419146514768        0.08417240348278
H            7.20626878256302       -0.55463450983549        1.12068090083179
H            7.02053210024510       -2.88954637893593        1.91393569274050
H            4.88723407771131       -4.08717835702569        1.78237181321606
H            2.88273752376281       -3.01681963733741        0.83411051801928
H            0.81125319746108        0.98169404512203        0.60430894541155
H           -2.28560761766503       -1.94478393231283        1.52136603991868
H           -4.24429699139400       -2.24765362041826        2.98642416905253
H           -5.78470960204326       -0.39655641162678        3.43813605651819
H           -5.39369165327603        1.83922282672704        2.45870583955205
H           -4.39297937597067        4.01381699560238        1.07869313696078
H           -3.06474547249187        5.53704740039585       -0.34470705364525
H           -1.08120460894852        4.72759366753103       -1.53359783782245
H           -0.34736154390391        2.38081071684234       -1.32875789905672
H           -4.07854364831150       -4.59600363175495       -1.24728565947735
