  61
        -95.51241266
 C         -4.9268448068       -2.6882441933       -1.7565237333
 C         -4.6221910098       -1.3499221450       -1.9508864336
 C         -3.3367075788       -0.9102864698       -1.6937890217
 C         -2.3941728976       -1.8315774373       -1.2344765478
 C         -1.0116747329       -1.4374455400       -0.9149900062
 C          0.0383465398       -2.2568768927       -1.3191626527
 C          1.3518445174       -1.9055811251       -1.0885811652
 C          1.6468218456       -0.7189525401       -0.4190907889
 N          2.9743482043       -0.3604291227       -0.1676033904
 C          3.5449466958        0.8724474040       -0.4167796176
 C          2.9933651831        1.9996102922       -1.0073755220
 C          3.8021890804        3.1081445200       -1.1688695826
 C          5.1346678469        3.1000586130       -0.7635060902
 C          5.6974666887        1.9728748407       -0.1985723973
 C          4.9032657948        0.8471730816       -0.0257663173
 C          5.1542380765       -0.4687281439        0.4923295120
 C          6.2745681490       -1.0818757937        1.0376411438
 C          6.1672527755       -2.3869877631        1.4744210557
 C          4.9581156638       -3.0735231886        1.3885288240
 C          3.8300626920       -2.4846885636        0.8499041401
 C          3.9390135040       -1.1823218643        0.3839643881
 C          0.6081056686        0.0919190040        0.0246807865
 C         -0.7129937459       -0.2612805891       -0.2139188836
 N         -1.7376576861        0.5456631539        0.3024775325
 C         -2.7671518128        0.1142607204        1.1148788594
 C         -2.9845823275       -1.1379588752        1.6705476035
 C         -4.1033772788       -1.3019409314        2.4636613314
 C         -4.9791856136       -0.2475186762        2.7148486637
 C         -4.7502040147        1.0076990085        2.1883471354
 C         -3.6344347960        1.1970501940        1.3832609183
 C         -3.0934269384        2.3347066843        0.6931783361
 C         -3.4962292625        3.6570197947        0.5613310966
 C         -2.7369928766        4.5064636445       -0.2190288672
 C         -1.5967090203        4.0497143387       -0.8763258924
 C         -1.1766950067        2.7385230283       -0.7613471146
 C         -1.9213913898        1.8868106925        0.0408769483
 N         -2.6818493162       -3.1219614031       -1.0854286186
 C         -3.9096440996       -3.5318756932       -1.3374722958
 H         -5.9205205852       -3.0676451685       -1.9350487228
 H         -5.3748490050       -0.6573471401       -2.2991761642
 H         -3.0660901031        0.1208951163       -1.8596940950
 H         -0.2000158449       -3.1715703163       -1.8388438841
 H          2.1559181086       -2.5346151925       -1.4373465464
 H          1.9687647451        2.0097547784       -1.3442495052
 H          3.3926742260        3.9984988453       -1.6227348860
 H          5.7346141470        3.9865358473       -0.9044394229
 H          6.7346484217        1.9608660904        0.1002847688
 H          7.2060058891       -0.5427090936        1.1212604836
 H          7.0267396571       -2.8834050565        1.8992496862
 H          4.8993109755       -4.0875639464        1.7551246607
 H          2.8932913949       -3.0190110075        0.8067707629
 H          0.8253606296        0.9845193249        0.5916393007
 H         -2.3068921195       -1.9577734766        1.4898048103
 H         -4.3013566945       -2.2689606051        2.9015056119
 H         -5.8438229207       -0.4174638902        3.3389460629
 H         -5.4204106117        1.8280293753        2.3967767117
 H         -4.3883386806        4.0085904376        1.0572098130
 H         -3.0322571512        5.5387949719       -0.3320894777
 H         -1.0312376317        4.7337475742       -1.4917072420
 H         -0.3037162737        2.3862082075       -1.2890517884
 H         -4.0828000058       -4.5905466919       -1.1925889083
