54
 energy: -89.345346286385 gnorm: 0.000046662646 xtb: 6.7.1 (edcfbbe)
N           -5.89699980094796       -1.86024440658684       -0.85469046723323
C           -4.90944881250994       -1.30671488504630       -0.60394125697953
C           -3.71779135799938       -0.67260432922321       -0.29667667305769
C           -2.49452697416682       -1.28313131829773       -0.57526360587046
C           -1.29396849023107       -0.65773895232141       -0.31529525363990
N           -0.08509840815534       -1.23827634273951       -0.69488337833280
C            0.93100860032565       -0.60495305546281       -1.38778171297646
C            0.91652395916425        0.61702039857446       -2.04815746703157
C            2.07446727119689        1.01640066360491       -2.69111773433433
C            3.21180672914905        0.21411063031913       -2.69655228142082
C            3.21109443421018       -1.03331651717823       -2.09123209803962
C            2.06098085314544       -1.45419809039430       -1.44466772136157
C            1.68656868394580       -2.67313164746558       -0.77473628251909
C            2.35454978992115       -3.85510324564036       -0.50267963041880
C            1.68524021176113       -4.84973470920488        0.19316879249130
C            0.37425879153893       -4.66676432733582        0.62886883761716
C           -0.31207298490387       -3.49487091973623        0.37085995327627
C            0.34650404875590       -2.50104142956536       -0.34596773367029
C           -1.29433338873175        0.65692462223112        0.31354127247249
N           -0.08575476675836        1.23807023283806        0.69311608074313
C            0.93046888694265        0.60509422295539        1.38614651215492
C            0.91625826162902       -0.61691701541781        2.04645840873733
C            2.07418328220486       -1.01590008909760        2.68968826147035
C            3.21122711432479       -0.21320036963413        2.69540537926047
C            3.21016688715114        1.03431288767546        2.09025355231113
C            2.06003685110519        1.45483820534571        1.44349218521254
C            1.68514398966141        2.67380687678482        0.77388282911945
C            2.35246625234080        3.85633470757921        0.50265912889587
C            1.68268282464062        4.85098901427367       -0.19270384309800
C            0.37190548957262        4.66748625357057       -0.62879567952006
C           -0.31375827390448        3.49500551938624       -0.37167399462069
C            0.34525670806734        2.50116914900172        0.34474296393232
C           -2.49526069162078        1.28138370207085        0.57409110781267
C           -3.71817244596550        0.66977591298351        0.29637097694918
C           -4.91019860069593        1.30266174650733        0.60476977596101
N           -5.89813999456067        1.85492575387175        0.85671277229975
H           -2.50044294230907       -2.24963954758371       -1.05921759776212
H            0.02700426313980        1.22718750652188       -2.08056019867843
H            2.09022585872107        1.96571219717753       -3.20411761111623
H            4.10017178598079        0.56178001776598       -3.20129422420774
H            4.08311849774585       -1.66712325194153       -2.12984025128012
H            3.37571640787897       -3.99458661526023       -0.82114253269711
H            2.18720051010609       -5.78040949788900        0.40977532098825
H           -0.11702101861766       -5.45446721517447        1.17952089258483
H           -1.32436300982026       -3.35972765633994        0.72041501982890
H            0.02691200262196       -1.22734660667188        2.07868489355643
H            2.09014799287826       -1.96521085489612        3.20268146928945
H            4.09962020808432       -0.56060623122038        3.20027751471374
H            4.08195847314107        1.66842331556719        2.12911550659361
H            3.37348073386951        3.99625342763719        0.82142007720330
H            2.18410040423685        5.78212596016235       -0.40857816739917
H           -0.11972738116110        5.45523118529323       -1.17907244688693
H           -1.32589037144580        3.35943487957633       -0.72151879148306
H           -2.50168263969292        2.24789898974331        1.05802245257319
