64
 energy: -102.740619351591 gnorm: 0.000072699307 xtb: 6.7.1 (edcfbbe)
O            5.71839175903092        2.42177569985208        0.55757680140126
S            5.69619476884107        1.05786697214747        1.01957996970539
O            6.25929913736745        0.76104123392447        2.31184989367740
C            6.51232201122094        0.01870981510382       -0.20164674849100
C            7.27794583920642       -1.05205555294828        0.21607999656221
C            7.86076263764573       -1.87752537586460       -0.73118505532663
C            7.66558101694625       -1.62465033338235       -2.07993485061273
C            6.89464144321605       -0.54642883851772       -2.48782302604973
C            6.31070457328567        0.28035260803656       -1.54327438006221
C            4.02516357403432        0.44911649632069        0.94813710272891
C            3.72084436292314       -0.77752870721187        1.53674097290349
C            2.45881749394142       -1.29440928025891        1.43304859792475
C            1.42259224807515       -0.60002108942121        0.73713918595025
C            0.11328810020347       -1.12326651128046        0.63092850460867
C           -0.16171436017583       -2.52562572379543        0.85620025417528
C           -1.40122077959502       -3.05853838402956        0.74922110238565
C           -2.50271935599284       -2.21738154924466        0.42537666457939
C           -2.24894468312667       -0.81212662233749        0.20969797362582
C           -1.01022752589658       -0.28615148457521        0.29154392868440
C           -3.55038220380304       -0.10707043818305       -0.09181059035895
C           -3.54820286792092        0.64474245342682       -1.40077230335396
C           -3.30560410526783        0.15693256108642       -2.66621739880304
C           -3.36172724224316        1.03986044653954       -3.73617914573948
C           -3.65557676942067        2.38084622030201       -3.53632200935203
C           -3.89945856606379        2.87502660127250       -2.26503605409129
C           -3.84465834098549        2.00024435624347       -1.19227614808142
C           -4.04867318315010        2.21430333947629        0.23134496187359
C           -4.35838119352774        3.35815271391760        0.94884055185421
C           -4.49301434080029        3.26130032982898        2.32440998676389
C           -4.32195744624414        2.04771030585713        2.97431830402103
C           -4.01216097929605        0.89698137795945        2.26213896237152
C           -3.87803900343012        0.98987601738064        0.89425717195459
C           -4.53914939821013       -1.24630171608809       -0.05542652232049
C           -5.88890200367150       -1.21262037617970       -0.27304349264785
C           -6.61425136318675       -2.40373830107703       -0.17920272702797
C           -5.97535858934814       -3.60835508696899        0.13220679490446
C           -4.62140927399829       -3.66202960606089        0.35401762107150
C           -3.87018810548285       -2.47037059371423        0.26171454910573
C            1.77624661070383        0.65543469035324        0.15529373033358
C            3.04728063046483        1.15328965740695        0.24881354703565
H            7.41741537123537       -1.20859407593847        1.27433639520423
H            8.46739685922173       -2.71438786297732       -0.41905000550987
H            8.12041160890589       -2.26848206265117       -2.81820546114000
H            6.75119693167595       -0.35113926913880       -3.53997455131097
H            5.71581086675293        1.13410505344050       -1.82756559854991
H            4.49373947197730       -1.28851134042965        2.08972551824693
H            2.23373121941760       -2.22265305807605        1.93278226700523
H            0.66848549787123       -3.17861311451670        1.07279195279461
H           -1.56667942397744       -4.11482416100544        0.90064350998990
H           -0.86717339310776        0.77362352035401        0.15240618810276
H           -3.07741867994562       -0.88766915659388       -2.82135575203317
H           -3.17496199864321        0.67819593968728       -4.73651151662481
H           -3.69467222935509        3.04829531956357       -4.38475406378342
H           -4.12758963907375        3.91966761781634       -2.11483649973158
H           -4.49203418026248        4.30534092241938        0.44797040096380
H           -4.73401744806688        4.14280907219029        2.90024896289789
H           -4.43087623458937        1.99747279409724        4.04752597672537
H           -3.87879154427924       -0.04839272806003        2.76780086544015
H           -6.38811649522833       -0.28494485914078       -0.51229331336264
H           -7.68001273032886       -2.39419613991754       -0.34775680966415
H           -6.56540662952229       -4.51102768448598        0.19768153615442
H           -4.13067433006075       -4.59296281913505        0.59352854306121
H            1.03998889883443        1.20501542722975       -0.40867845025475
H            3.31924836340245        2.09828269858700       -0.19550477836072
