64
 energy: -102.834221197764 gnorm: 0.000096589773 xtb: 6.7.1 (edcfbbe)
O            5.69933734042773        2.49576779838145       -0.27517323842464
S            5.65185688895893        1.33236800935790        0.57099033227689
O            6.09991990794153        1.45543614784193        1.93329996781724
C            6.57403602183378        0.00328884019182       -0.21558487678438
C            7.35165051570669       -0.83921814226141        0.55339598275296
C            8.02507772254472       -1.88382482909072       -0.05867085188019
C            7.90707886617506       -2.07256392068634       -1.42663202211137
C            7.12296200811785       -1.21975206631980       -2.18870357771082
C            6.44897563111019       -0.17461154409603       -1.57976931202942
C            3.98045103962385        0.67935018282181        0.55833614233062
C            3.64624256716000       -0.31732055851305        1.45529921684740
C            2.37927240374224       -0.86738937141093        1.41654863469319
C            1.44241991601913       -0.42485176639782        0.48119916449757
C            0.09860057346163       -1.01690285181856        0.42940548468071
C           -0.06913216421003       -2.39476492157363        0.57666463889402
C           -1.32002923398590       -2.98173636978478        0.51268321415056
C           -2.42630052171922       -2.17424101129505        0.30369256442821
C           -2.26348333502375       -0.78786097514641        0.16255694162710
C           -1.01955028910997       -0.20556744180626        0.21968082914955
C           -3.59683019136604       -0.11659405485887       -0.05663999099686
C           -3.65779140594316        0.67929951539151       -1.33844537390814
C           -3.44349987355968        0.24088220497708       -2.62648689321188
C           -3.54991671599264        1.15914317554604       -3.66275232401333
C           -3.86396834225393        2.48542188584388       -3.40687452040701
C           -4.07963424270778        2.92929279669467       -2.11190414978416
C           -3.97509867867828        2.01916420968293       -1.07305619932349
C           -4.13962515745115        2.17822969460688        0.36344267132773
C           -4.45585466888605        3.28755797919583        1.13007175860520
C           -4.54829643564755        3.13908430654420        2.50473533564980
C           -4.32936651268016        1.90831759827517        3.10500222651546
C           -4.01187175604776        0.79174252385415        2.34303838985990
C           -3.91968827390101        0.93639711856907        0.97645585657280
C           -4.54288019529762       -1.29227981718106       -0.02880368683763
C           -5.91197589302921       -1.29156715506696       -0.18004173994198
C           -6.58417332750536       -2.50478847599533       -0.11526798675129
C           -5.89465265503738       -3.68946568430596        0.09661161326746
C           -4.51760886606018       -3.69403642509553        0.24912657932585
C           -3.84008646139833       -2.48728714179913        0.18576775452962
C            1.80117982431800        0.58761211651504       -0.40932136189912
C            3.06968165583128        1.13582962613100       -0.37420862360188
H            7.42756144323161       -0.65244133015004        1.61323369799557
H            8.64169126800610       -2.54737267533586        0.52871003811047
H            8.43308174600958       -2.88638015397813       -1.90344536150413
H            7.03956245307199       -1.36885403249095       -3.25469048145454
H            5.84169912313790        0.51406326367354       -2.14593741138440
H            4.37702724944115       -0.63554947613268        2.18226075462811
H            2.10221092315947       -1.63107858045501        2.12769041311240
H            0.80271542277561       -3.01681555455288        0.71749231624561
H           -1.42857737846195       -4.05071783583331        0.61976744785169
H           -0.90930182493628        0.86488942821010        0.12664116599889
H           -3.19910559140469       -0.79278815716078       -2.82473841444197
H           -3.38623241018607        0.83622672897405       -4.68034229032216
H           -3.94128759162477        3.18156458551636       -4.22932242888786
H           -4.32355284214741        3.96319063379653       -1.91799807030371
H           -4.62741990359797        4.24806496124198        0.66739250552503
H           -4.79446970465874        3.99342324020344        3.11826776762214
H           -4.40715825824729        1.81679384394000        4.17828820609168
H           -3.84213238775047       -0.16774241489102        2.80983198540430
H           -6.44867371530026       -0.36862539377847       -0.34471788125559
H           -7.65770878996262       -2.52622508041167       -0.23112779924601
H           -6.43983241884126       -4.62090017836741        0.14313844644281
H           -3.98470986460050       -4.61877090628691        0.41378613173952
H            1.08656031509124        0.92958464613072       -1.14308667095583
H            3.36785437026988        1.92256707718767       -1.04957920510823
