64
 energy: -102.740693931144 gnorm: 0.000104748682 xtb: 6.7.1 (edcfbbe)
O            5.76627290316247        1.98438242185016        1.41828831456498
S            5.73824483396374        0.55588332202566        1.23638431438284
O            6.39332838138797       -0.27667004991842        2.21227176441327
C            6.41557280563586        0.17418710192799       -0.38579677619594
C            6.95899532214683       -1.07518540474382       -0.61422650325835
C            7.43088809374882       -1.38645423915278       -1.87826647726037
C            7.34762799806221       -0.44905861072717       -2.89641949112698
C            6.80062458224623        0.80196157556005       -2.65553162065908
C            6.32822116480734        1.11627559450951       -1.39248585626213
C            4.05081051558254        0.02281853951087        1.05151169257353
C            3.70235221802891       -1.29489116283331        1.34375205935061
C            2.42133283251215       -1.72866921585243        1.14063816059138
C            1.40819796871878       -0.85866712610446        0.63102389563356
C            0.07983592824020       -1.29531879800272        0.42592956369400
C           -0.25936958155342       -2.70178306810992        0.38448343979862
C           -1.52174094998015       -3.15030749087618        0.19098366198903
C           -2.58380405426376       -2.21677801083773        0.03414257935743
C           -2.26515192249052       -0.80951754604851        0.07066280264828
C           -1.00549007568945       -0.36258174567363        0.24702010260498
C           -3.52995900175307       -0.00262824666565       -0.10723456621931
C           -3.48021823102608        0.93806925770945       -1.28755756638856
C           -3.25903608249579        0.63494755401232       -2.61316979345555
C           -3.25764462579950        1.67205304323570       -3.53615407998058
C           -3.47382862017009        2.98186297448462       -3.13352945485670
C           -3.69622365065774        3.29025895976286       -1.80111387919826
C           -3.69902465292368        2.26077039380805       -0.87416792958257
C           -3.89977086385503        2.26673400173991        0.56593673432913
C           -4.14914422456179        3.30392506856964        1.44971355117796
C           -4.30004478859754        3.00665239459222        2.79454775511257
C           -4.20406201287289        1.70038195001988        3.25151580020256
C           -3.95443374931314        0.65563199379318        2.37196432188649
C           -3.80414964323768        0.94773088814309        1.03410496450856
C           -4.57307804188710       -1.08341374199863       -0.24856992251408
C           -5.92126493928946       -0.94928495489488       -0.43677928177529
C           -6.70305406409845       -2.10316838277735       -0.53875883516624
C           -6.12157245805882       -3.37183060375594       -0.45056331318580
C           -4.77002837514985       -3.52629995131293       -0.26191165317036
C           -3.96297857910973       -2.37350175986535       -0.15694044948843
C            1.80974604272487        0.48330540547973        0.34643458486964
C            3.09663704742761        0.90231916022989        0.54208764349860
H            7.02235986693116       -1.77392479045418        0.20503514150573
H            7.86515161083473       -2.35629601328732       -2.06955196305343
H            7.71629035486803       -0.69283409787216       -3.88185966630728
H            6.74534177902225        1.53084542405861       -3.45017796108241
H            5.91211383770394        2.08520740013751       -1.16572683721124
H            4.45846640977854       -1.94390426369138        1.75748124817559
H            2.16613714612012       -2.73825193461956        1.41863381130651
H            0.53812779342596       -3.42179140801760        0.47194760247341
H           -1.73415030615558       -4.20819814264529        0.14784141920005
H           -0.81838224304643        0.69797377864282        0.29875557429926
H           -3.09104918569392       -0.38540338166765       -2.92622166377693
H           -3.08672812402428        1.45638151010228       -4.58048632854099
H           -3.46874291936929        3.77178009935140       -3.87033283877999
H           -3.86381716222284        4.31146864527323       -1.49299585955931
H           -4.22464098791938        4.32241641213694        1.09914950457682
H           -4.49518603622804        3.80257232965565        3.49821722403758
H           -4.32482417264990        1.49357161633074        4.30450452172535
H           -3.87914226568005       -0.36178075244832        2.72746671168841
H           -6.37611296506446        0.02822348178015       -0.50469076328326
H           -7.76829445714521       -2.01463556700552       -0.68644411315683
H           -6.75424867532307       -4.24367799250427       -0.53321073224328
H           -4.32373279367548       -4.50663167472027       -0.19415646294561
H            1.09518972276677        1.17545323898007       -0.06831934671518
H            3.39695128209542        1.91631788708104        0.32856548790180
