  64
       -102.83417143
 O          5.7334020371        2.4898908586       -0.3274643802
 S          5.6777240488        1.3408460627        0.5374910271
 O          6.1370085604        1.4804290692        1.8941611078
 C          6.5784313028       -0.0116702754       -0.2346706101
 C          7.3609810132       -0.8449322384        0.5391747895
 C          8.0179627293       -1.9060928037       -0.0621747334
 C          7.8791845664       -2.1202491674       -1.4243382563
 C          7.0906183806       -1.2762894225       -2.1916075577
 C          6.4330032722       -0.2148255826       -1.5933690987
 C          3.9998829922        0.7058178358        0.5469737660
 C          3.6582185526       -0.2587863312        1.4757307601
 C          2.3887267836       -0.8036219864        1.4517887178
 C          1.4567058071       -0.3880086051        0.4993952759
 C          0.1138991419       -0.9834848446        0.4572878281
 C         -0.0475567886       -2.3586211918        0.6332448546
 C         -1.2945627947       -2.9538130550        0.5707504829
 C         -2.4030968286       -2.1569099353        0.3355373181
 C         -2.2476774064       -0.7720423407        0.1710562629
 C         -1.0069821858       -0.1820807561        0.2247665149
 C         -3.5843307038       -0.1133259644       -0.0649051557
 C         -3.6487049512        0.6887451686       -1.3418457092
 C         -3.4165607765        0.2620544698       -2.6307208482
 C         -3.5380499980        1.1828433639       -3.6631428682
 C         -3.8845810171        2.5001047082       -3.4028645230
 C         -4.1179809715        2.9324205900       -2.1070436757
 C         -3.9986298870        2.0197829883       -1.0720906926
 C         -4.1782180542        2.1674839841        0.3638091588
 C         -4.5284657623        3.2643462667        1.1336415404
 C         -4.6311214414        3.1054989122        2.5064356387
 C         -4.3884691758        1.8768765053        3.1019731231
 C         -4.0366232468        0.7728691340        2.3368366679
 C         -3.9344630446        0.9279601943        0.9721237993
 C         -4.5206025150       -1.2974273284       -0.0438289694
 C         -5.8861945101       -1.3105237885       -0.2235327525
 C         -6.5493329011       -2.5284897297       -0.1555384405
 C         -5.8547845218       -3.7037635192        0.0898674962
 C         -4.4812990969       -3.6942183891        0.2711106032
 C         -3.8124850351       -2.4828916852        0.2021984121
 C          1.8214264789        0.5949764946       -0.4210466143
 C          3.0928134574        1.1375874117       -0.4008577835
 H          7.4526394687       -0.6394740969        1.5943475179
 H          8.6378337812       -2.5628168369        0.5291479579
 H          8.3922986145       -2.9469367849       -1.8927210697
 H          6.9903236649       -1.4451714901       -3.2531135280
 H          5.8224834306        0.4670850395       -2.1643322063
 H          4.3862070710       -0.5562515283        2.2141967426
 H          2.1060817949       -1.5427760066        2.1862958204
 H          0.8264900379       -2.9727744224        0.7938038268
 H         -1.3979890464       -4.0210518374        0.6980382505
 H         -0.9008064355        0.8867483730        0.1107001235
 H         -3.1475413374       -0.7647326460       -2.8328040448
 H         -3.3613554720        0.8686434324       -4.6812625750
 H         -3.9739188204        3.1982059774       -4.2224061385
 H         -4.3874572497        3.9592628211       -1.9094798043
 H         -4.7192239879        4.2231487182        0.6749571282
 H         -4.9047253308        3.9498755977        3.1221394619
 H         -4.4753497476        1.7767844947        4.1737939310
 H         -3.8491457730       -0.1851832894        2.7998190986
 H         -6.4268564732       -0.3948333813       -0.4137001314
 H         -7.6197495480       -2.5610702594       -0.2951796267
 H         -6.3931616277       -4.6389798020        0.1394927204
 H         -3.9442464003       -4.6116357070        0.4612125588
 H          1.1094632817        0.9177723893       -1.1659904882
 H          3.3957945720        1.9012534999       -1.1001831317
