  100
       -154.37861378
 C         -9.2653415474       -1.8636404313        2.1675164335
 C         -8.1455547443       -2.2294323895        1.2419818291
 C         -8.1258641472       -3.4701457894        0.6132218421
 C         -7.0891741388       -3.8096002628       -0.2347926032
 C         -6.0378939174       -2.9398680402       -0.4907099279
 C         -4.9491195068       -3.3350245613       -1.4408256118
 C         -6.0508041753       -1.6937243897        0.1486817422
 N         -5.0099602920       -0.7710643980       -0.0654934855
 C         -3.6947159520       -1.1743538850        0.1366411800
 C         -3.3962173042       -2.0508045262        1.1836594943
 C         -2.1018709678       -2.3385601960        1.5186933327
 C         -1.0161676705       -1.7356376734        0.8181621879
 C          0.3106383917       -1.9531679361        1.1849128982
 C          1.3518370584       -1.3343646540        0.5110741440
 C          1.1081779002       -0.4951348036       -0.5782612379
 C          2.1615523832        0.1473091138       -1.3214278137
 N          3.4782292768        0.1049665516       -0.8804286435
 C          4.5174152482       -0.0411142137       -1.8181789357
 C          5.5753463646        0.8640321798       -1.8016963349
 C          6.6375058728        0.7507079898       -2.6826080160
 C          7.7809529021        1.7170557924       -2.6211159112
 C          6.6186321872       -0.2872080228       -3.6051131162
 C          5.5675531866       -1.1859061446       -3.6289259330
 C          4.5043247246       -1.0927410342       -2.7434427970
 C          3.4057452426       -2.1106344131       -2.7757838367
 C          3.7998540947        0.4178717644        0.4324822355
 C          2.9777177165        1.2268235560        1.2242980447
 C          3.2938244286        1.5206315640        2.5423407730
 C          4.4460123628        1.0416252192        3.1366906327
 C          5.2893064565        0.2420324778        2.3706971557
 C          4.9604412386       -0.0693934010        1.0407814374
 O          5.8930194380       -0.8825072010        0.4660335617
 C          6.8440226798       -1.0977129382        1.4131964696
 C          7.9889264121       -1.8598083477        1.2690083156
 C          8.8322805198       -1.9474497585        2.3625566192
 C          8.5411630964       -1.2963845537        3.5592005046
 C          7.3971928840       -0.5361614176        3.7017184201
 C          6.5356139170       -0.4331305709        2.6169458170
 C          1.8679925086        0.8063170881       -2.5196357112
 C          0.5811454127        0.9431865217       -2.9604988490
 C         -0.5066524161        0.4012756086       -2.2135390805
 C         -1.8276838526        0.5378746397       -2.6344492571
 C         -2.8751837205        0.0244023990       -1.8860850150
 C         -2.6371901805       -0.6657279410       -0.6959032584
 C         -1.2957730195       -0.9057963120       -0.2981753192
 C         -0.2293872512       -0.3261352383       -1.0267268702
 C         -5.3103801349        0.5736868632       -0.2437776661
 C         -6.4805545941        0.9864834374       -0.8866190538
 C         -6.7726889461        2.3277561877       -1.0889623001
 C         -5.9084720831        3.3272703625       -0.6830299366
 C         -4.7300361513        2.9489699452       -0.0480037871
 C         -4.4479127305        1.5915882612        0.1811619247
 O         -3.2617793359        1.4288529354        0.8313385145
 C         -2.7437138706        2.6703056276        1.0020356160
 C         -1.5251768336        2.9768513027        1.5811585244
 C         -1.1800359360        4.3142036939        1.6511255965
 C         -2.0236074500        5.3097611953        1.1620452498
 C         -3.2366490105        5.0004116740        0.5789160924
 C         -3.6027642278        3.6633787602        0.4917810554
 C         -7.1005618226       -1.3558619511        1.0022108885
 H         -9.1964248866       -0.8217665565        2.4690743584
 H        -10.2272510965       -2.0266809442        1.6842360843
 H         -9.2330440899       -2.4858227094        3.0617387112
 H         -8.9299183678       -4.1699521974        0.7874278766
 H         -7.0973877073       -4.7735387497       -0.7232062591
 H         -4.6317274800       -2.4900394193       -2.0485212636
 H         -4.0761052899       -3.6980533669       -0.8975260693
 H         -5.2954479033       -4.1298763371       -2.0976688459
 H         -4.2123182925       -2.4609324324        1.7630634171
 H         -1.8827074918       -2.9916853193        2.3498244261
 H          0.5280021626       -2.6056167146        2.0183242298
 H          2.3648104102       -1.5254971216        0.8315718878
 H          5.5585410311        1.6725120816       -1.0832751608
 H          8.4697096609        1.4263011669       -1.8269901237
 H          7.4272506596        2.7229261198       -2.4044639652
 H          8.3301350802        1.7296878836       -3.5594412758
 H          7.4333806322       -0.3969366505       -4.3059597306
 H          5.5777404453       -1.9935831990       -4.3470802349
 H          3.7476374566       -3.0139838611       -3.2758805883
 H          3.0809734323       -2.3686195366       -1.7699309500
 H          2.5392494528       -1.7287162983       -3.3167549933
 H          2.0806568589        1.6344760232        0.7840346234
 H          2.6233206373        2.1495649755        3.1086122031
 H          4.6904682283        1.2758780202        4.1602844377
 H          8.2057743506       -2.3591015787        0.3382507161
 H          9.7363643527       -2.5326678130        2.2861903200
 H          9.2262609637       -1.3899607018        4.3887885719
 H          7.1735798980       -0.0320414441        4.6294165538
 H          2.6843315152        1.2447855232       -3.0774068554
 H          0.3666403331        1.4828821446       -3.8703210869
 H         -2.0365950049        1.0660665865       -3.5537595960
 H         -3.8863689015        0.1617471386       -2.2409978871
 H         -7.1680092365        0.2318230604       -1.2384298916
 H         -7.6938309179        2.5878282482       -1.5885729839
 H         -6.1327347705        4.3678337573       -0.8540676268
 H         -0.8798653060        2.1958879826        1.9509765837
 H         -0.2349673814        4.5940820536        2.0916997168
 H         -1.7172328617        6.3425494129        1.2389446946
 H         -3.8854525139        5.7736964780        0.1967761309
 H         -7.0833453672       -0.3892290154        1.4859432898
