92
 energy: -139.041795176846 gnorm: 0.000052118946 xtb: 6.7.1 (edcfbbe)
C           -8.38992450554992       -7.25035628516108       -0.95410951102369
C           -9.07887496056941       -6.07232900948343       -0.71623070317929
C           -8.39072862734236       -4.88338577449545       -0.55935932235711
C           -6.99921439271996       -4.85209106215937       -0.63270548201428
C           -6.26758258577211       -3.58840885827541       -0.46586014792475
C           -6.73387495022113       -2.40944779663471       -1.04613841093407
C           -6.04657551756286       -1.22291136678296       -0.89898065758555
C           -4.87133964245173       -1.17482073634261       -0.14864028941893
N           -4.17637022129075        0.02958512957479        0.01153158362008
C           -4.88462426165736        1.22822756304973        0.15479434781531
C           -4.41770039568280        2.40502495629972       -0.43166839127462
C           -5.11771900332887        3.58425891017484       -0.28613366082609
C           -6.31167623235941        3.62922255267799        0.43275419522977
C           -7.05969703549160        4.88591233334320        0.57749581934752
C           -6.39430224691148        6.08861151156081        0.80913808543809
C           -7.09970620671765        7.26971949145412        0.94742621932552
C           -8.48179736829115        7.27187983274857        0.85327109098450
C           -9.15413534395230        6.08318159530253        0.62102959810039
C           -8.45056786525459        4.90052568752007        0.48678048339322
C           -6.77595343365248        2.44842569574693        1.01116921380870
C           -6.07403195956582        1.26824053886115        0.88300739169174
C           -2.77978075710960        0.03690022559983        0.01892239645686
C           -2.05793103508282       -0.82952519285646       -0.80414325494218
C           -0.67952667409623       -0.82052361110496       -0.79160261743335
C            0.02778310407476        0.06103318715405        0.02618612792878
C            1.49465717821898        0.07846064088047        0.02275923127637
C            2.22575993898605       -1.10867972825289       -0.03930204210296
C            3.60410908102958       -1.08899692853251       -0.04339336377175
C            4.29942420794649        0.11960591827087       -0.00357852683912
C            5.76566221633075        0.10912456237118       -0.02543341968969
C            6.51621246829623        1.16425483439663       -0.54523110946733
C            7.90388907468199        1.03668282748669       -0.51933943695651
C            8.80311404713142        2.07682372594375       -1.03746927069848
C           10.07949821194469        2.20729013636477       -0.49218736863547
C           10.94345491821387        3.18083115356295       -0.95584980431646
C           10.54803964673956        4.03189130381127       -1.97584718803767
C            9.28594078149843        3.90109665950531       -2.53237370945169
C            8.41589776628603        2.93203325311272       -2.06716652721990
N            8.48060214597824       -0.04540606053360        0.00235341680046
C            7.69223162077806       -1.00815264683322        0.46854111548499
C            8.33959759271817       -2.19656564979748        1.03448621747745
C            9.71861899030801       -2.36567196349258        0.92354513602059
C           10.32703545334858       -3.48358365306467        1.46201055472937
C            9.56808445303868       -4.44257282977352        2.11507064723410
C            8.19571837952827       -4.28083192851517        2.22751522763319
C            7.58199882756175       -3.16486712431398        1.69101710040598
N            6.36417796155112       -0.97644281686318        0.46423431679455
C            3.57289437872951        1.30752604999442        0.06323433171227
C            2.19354983483804        1.28439049418375        0.08233888040561
C           -0.69874433401543        0.92759490958729        0.84314450661475
C           -2.07710328428348        0.91273146637696        0.84863209193397
C           -4.40344450100787       -2.34954500364564        0.44105164916182
C           -5.08825885140378       -3.53521300817136        0.27608151098964
C           -6.31689257805572       -6.04417127821586       -0.86940868179645
C           -7.00691112526974       -7.23140320291654       -1.03099133390010
H           -8.92816881185189       -8.17876257913993       -1.07867805322936
H          -10.15771493928131       -6.08114865350987       -0.65076711686587
H           -8.93358322686589       -3.97101638434419       -0.35786282005173
H           -7.63155451044065       -2.43013376261042       -1.64680179571386
H           -6.41281346808830       -0.32249965017315       -1.37056413356840
H           -3.50440467098165        2.38486932769206       -1.00853314072355
H           -4.74995395799944        4.48020232698523       -0.76471225563308
H           -5.31762817462504        6.09259663522207        0.90091385782393
H           -6.56959171813613        8.19328129169976        1.13250673798154
H           -9.03208726763991        8.19547137107537        0.95968388505058
H          -10.23210168004610        6.07873498601980        0.54223132020000
H           -8.98062636860584        3.97991928226323        0.28882074851929
H           -7.68462186738491        2.46272881354236        1.59520917962460
H           -6.44001132163687        0.36631914404076        1.35192322050210
H           -2.58907084151808       -1.50410212792256       -1.45977790690815
H           -0.14006773899586       -1.48360357003022       -1.45186453693975
H            1.70448692325748       -2.05439150135186       -0.06264220243252
H            4.16968004233025       -2.00753749882953       -0.08465405085513
H            6.04196288146926        2.04128538512904       -0.95199681773616
H           10.37216830100134        1.53731076463601        0.30188399952412
H           11.92805292802424        3.27659089082413       -0.52204490647948
H           11.22294604688447        4.79250045862434       -2.33988510775060
H            8.97840690703002        4.55554858043695       -3.33501996807042
H            7.44286689514915        2.82506589405192       -2.52409947625639
H           10.29422444947007       -1.61178645056461        0.40897993480928
H           11.39629114047044       -3.60952701897710        1.37231237814148
H           10.04551624407302       -5.31555187300341        2.53582852315906
H            7.60362404596063       -5.02764451627241        2.73631729648621
H            6.51566379896436       -3.02180613797729        1.77424789055321
H            4.08789765379376        2.25528871863399        0.12365101977839
H            1.64630902562916        2.21481322727498        0.12391653554092
H           -0.17453858828851        1.59878348344955        1.50751162784954
H           -2.62331106997064        1.57749855227751        1.50192733194049
H           -3.50117748863910       -2.32299710915945        1.03476183879635
H           -4.72017543991199       -4.43022180396787        0.75611240656930
H           -5.23913722664349       -6.03460416674415       -0.94701552366435
H           -6.46394169282780       -8.14656132639792       -1.22034203580663
