34
 energy: -61.970531393867 gnorm: 0.000012441984 xtb: 6.7.1 (edcfbbe)
Br           6.61114668905303        0.43107245078796        0.01268260963810
C            4.72382556986990        0.67655570923964        0.01699947855759
C            4.22599350132985        1.99392513919487        0.02484614974584
C            2.87949011441052        2.21139668791196        0.02771841397573
C            1.98525016652564        1.11807980319456        0.02264774459385
N            0.66376495188468        1.33462900632206        0.02426496977643
C           -0.13650242405620        0.28534356713628        0.01884893159055
C           -1.56659745102772        0.49522859889800        0.01877706982103
C           -2.06599371558195        1.80128138440462        0.02421683044381
C           -3.41865269735113        2.04368375401498        0.02302543057715
C           -4.28296189427148        0.95513309127630        0.01618817733842
Br          -6.16387881198209        1.26376485659541        0.01349262040803
C           -3.81929330039863       -0.34195740290506        0.01109407911988
C           -2.44558044031962       -0.60650885774463        0.01242811384721
C           -1.91705715761744       -1.96377210974768        0.00732964938616
C           -2.74217477162127       -3.09414759743674        0.00236554237206
C           -2.21515553304797       -4.36762572745103       -0.00255314838566
C           -0.83857732795043       -4.56134008765821       -0.00265016838065
C           -0.00250637188838       -3.46909595776308        0.00228034427203
C           -0.52328576234044       -2.17215535468210        0.00729733853098
C            0.38375108036234       -1.04566290539249        0.01233429927542
N            1.68359239197863       -1.26991638107751        0.01057781157991
C            2.50488079104663       -0.21109501021417        0.01518841259374
C            3.90103714589312       -0.41273084461354        0.01238601959833
H            4.92131098997122        2.81941945365607        0.02837402640816
H            2.46926418364080        3.20882500306706        0.03356482217087
H           -1.35663346974239        2.61345841952037        0.02919692581892
H           -3.80718433110304        3.04997172811348        0.02707243435295
H           -4.53684733377482       -1.14568214878516        0.00584881541526
H           -3.81463946393475       -2.98587794202632        0.00242501236161
H           -2.87916031084706       -5.21926459332381       -0.00633110620297
H           -0.43156279163375       -5.56103615997739       -0.00652653754353
H            1.07013760477786       -3.58099325663403        0.00244298678865
H            4.28061394313619       -1.42214496219578        0.00647437630235
