34
 energy: -61.927410198037 gnorm: 0.000025721712 xtb: 6.7.1 (edcfbbe)
Br           6.63747468919209        0.41661318911887        0.01493722018709
C            4.75695876743062        0.70324152786833        0.01797669670443
C            4.26680104435905        1.99886936606318        0.02492438965271
C            2.89926252876463        2.20674437224169        0.02684848541002
C            2.00476605871400        1.13979200215338        0.02190975767085
N            0.68686645116073        1.29125365628586        0.02298370585979
C           -0.16243261786232        0.27475855253341        0.01792818840245
C           -1.57399244216567        0.47649544339020        0.01804557366715
C           -2.07318900304831        1.79111006180200        0.02355827685333
C           -3.42011129266659        2.03624119916323        0.02305100651336
C           -4.29581278955978        0.95001721600197        0.01686536693332
Br          -6.17367245460850        1.27738209212732        0.01551982329160
C           -3.84118296848459       -0.34637593782450        0.01167174295724
C           -2.46681560411012       -0.62147328920850        0.01225959623854
C           -1.94175324157858       -1.96676411229324        0.00710401093773
C           -2.75903982552621       -3.10697991380760        0.00236578319087
C           -2.22413763995076       -4.37281613117247       -0.00246743333969
C           -0.84104936281033       -4.55532913193222       -0.00279922774390
C           -0.01246090448222       -3.46379519720151        0.00179091039555
C           -0.54153572336529       -2.16194142508750        0.00683431431710
C            0.35808227558726       -1.05260253688907        0.01171049912576
N            1.66966492803455       -1.22086283455421        0.01061356350415
C            2.53466644318478       -0.21334195935161        0.01497262415576
C            3.91247104897854       -0.39472909402489        0.01312058672499
H            4.94446575571634        2.83754866545385        0.02872192410826
H            2.49789222679226        3.20751493120064        0.03212778720674
H           -1.36409062195951        2.60440469008134        0.02809115718359
H           -3.80413433767151        3.04420792616838        0.02719527673453
H           -4.56071058668282       -1.14837011190305        0.00696927799133
H           -3.83184397396505       -3.00224791087770        0.00258988710837
H           -2.87861211310059       -5.23144088984718       -0.00599990609223
H           -0.42774781766690       -5.55245309093358       -0.00660320916490
H            1.06111498157968       -3.57437255015603        0.00174003950815
H            4.30356378282307       -1.39950175502494        0.00782392454772
