  85
       -137.72619586
 O         -1.5650249114        2.3808819415       -2.9625177319
 C         -1.6639213549        1.4845936293       -2.1454022387
 C         -2.9551822988        1.2091759037       -1.4617472116
 C         -3.0175379701        0.8316944622       -0.1215143965
 C         -4.2379844762        0.6059296992        0.4822138627
 C         -5.4179589913        0.7401904044       -0.2467017047
 N         -6.6597788612        0.4758045485        0.3643069137
 C         -7.6278180030        1.4782221763        0.4754229394
 C         -7.3890984528        2.7877721580        0.0781868267
 C         -8.3705407835        3.7588406517        0.2065692233
 C         -9.6011859004        3.4409916234        0.7436903353
 C         -9.8438124428        2.1455219947        1.1757618979
 C         -8.8678897064        1.1744350928        1.0523627690
 O         -9.1705665095       -0.0750431243        1.5345417358
 C         -8.2083891471       -1.0468570882        1.4226601046
 C         -8.5311950896       -2.3033661793        1.9002966599
 C         -7.6247975914       -3.3479104849        1.7945859449
 C         -6.4034066907       -3.1281991596        1.1913457118
 C         -6.0742145772       -1.8693126979        0.7120862406
 C         -6.9574915005       -0.8043787036        0.8388280862
 C         -5.3606409968        1.1375707513       -1.5808860478
 C         -4.1401223947        1.3828339347       -2.1744701484
 C         -0.5206366711        0.6156327584       -1.7921902737
 C          0.7744402206        1.1190664541       -1.9935035656
 C          1.8967570255        0.3732898485       -1.7139836055
 C          1.7174922469       -0.9156665964       -1.2260977877
 C          0.4180084180       -1.4554408496       -1.0608749989
 C         -0.6996988660       -0.6884346873       -1.3413880701
 C          0.5936813303       -2.8083777576       -0.6094862257
 C         -0.2897348499       -3.8217772896       -0.2623268232
 C          0.2264172631       -5.0292153157        0.1640375012
 C          1.6020043814       -5.2267540402        0.2608386056
 C          2.5001953960       -4.2321872588       -0.0770118780
 C          1.9873128008       -3.0250848568       -0.5281532125
 N          2.6517955295       -1.8709832356       -0.9032473115
 C          4.0459048467       -1.7198226606       -0.9647530122
 C          4.8136942632       -2.6508162643       -1.6584958978
 C          6.1886674707       -2.5088341918       -1.7011747832
 C          6.8063503546       -1.4460256548       -1.0690492249
 C          6.0423270409       -0.5130638830       -0.3708865438
 N          6.6671120840        0.5498359321        0.2897600430
 C          6.3250738938        1.8860915494        0.1931593009
 C          5.3500507884        2.4970567030       -0.5806147481
 C          5.2343449796        3.8721652994       -0.5112359851
 C          6.0746133728        4.6312977297        0.2994978925
 C          7.0656438819        4.0324872426        1.0512708300
 C          7.1988315105        2.6513435742        0.9982631877
 C          8.1071502552        1.7236241425        1.6126215151
 C          9.1610251781        1.8699059543        2.5047739142
 C          9.8321557551        0.7397308350        2.9266964002
 C          9.4527910925       -0.5249977659        2.4833458759
 C          8.4075994070       -0.6954240961        1.5954494659
 C          7.7472195009        0.4389713467        1.1465647131
 C          4.6593470276       -0.6538100337       -0.3183314177
 H         -2.1090818291        0.7426304166        0.4560990712
 H         -4.2885016220        0.3265003247        1.5244331106
 H         -6.4260870201        3.0547925610       -0.3273580238
 H         -8.1587383236        4.7668151484       -0.1151297102
 H        -10.3696169347        4.1915324987        0.8414515856
 H        -10.7868063614        1.8675696160        1.6187118179
 H         -9.5024510918       -2.4449271080        2.3469128739
 H         -7.8848965776       -4.3240409912        2.1723332853
 H         -5.6944882641       -3.9348595562        1.0831016161
 H         -5.1230346034       -1.7172159599        0.2265516160
 H         -6.2762379946        1.2469290879       -2.1427416864
 H         -4.0828435538        1.6946756777       -3.2065798265
 H          0.8678705781        2.1229340214       -2.3792838455
 H          2.8838808683        0.7712708875       -1.8890280072
 H         -1.6879831839       -1.1110217405       -1.2411443562
 H         -1.3556941885       -3.6629508522       -0.3238932056
 H         -0.4418659161       -5.8325411154        0.4351981481
 H          1.9753268995       -6.1774296861        0.6116098009
 H          3.5639976201       -4.3886504977        0.0179694602
 H          4.3286175796       -3.4678993122       -2.1697607140
 H          6.7835337876       -3.2263694790       -2.2457912691
 H          7.8767917338       -1.3224902333       -1.1239364896
 H          4.7092686349        1.9225125266       -1.2311886859
 H          4.4784828687        4.3682511035       -1.1017593474
 H          5.9518810722        5.7036013394        0.3289318190
 H          7.7294638424        4.6216127783        1.6657164119
 H          9.4428203441        2.8490403228        2.8613546341
 H         10.6568386141        0.8312979289        3.6176040559
 H          9.9849546916       -1.3929039291        2.8439851442
 H          8.1105020680       -1.6823505686        1.2739377309
 H          4.0662899418        0.0473882753        0.2491843037
