  176
       -269.89077503
 C          1.0305587608        4.7301765175        1.0151683646
 C          1.9558867911        3.7569032718        1.0033669951
 C          3.3635941689        3.9825007581        0.8942019713
 N          3.9491000371        5.1504315537        0.7419832312
 C          5.2772691449        4.8950891602        0.6538252753
 C          6.3432868666        5.8265549779        0.5018287111
 C          6.0993140891        7.2020394655        0.4318097877
 C          7.1413882930        8.0877345801        0.3156957286
 C          8.4474865604        7.6045689074        0.2707172359
 C          8.6992693940        6.2537637958        0.3329038792
 C          7.6611299534        5.3165793403        0.4443041655
 C          7.8970368314        3.8832695503        0.4800647516
 C          9.1850421096        3.3437575344        0.3566181166
 C          9.4096023560        1.9871771963        0.3455935027
 C          8.3412414022        1.1007166664        0.4407507055
 C          7.0642027522        1.5872039416        0.5715546471
 C          6.8183946715        2.9673786132        0.6152241391
 C          5.5163237325        3.5220418934        0.7537561511
 N          4.2815364680        2.9466302212        0.9118710544
 C          3.9736371344        1.6070781274        1.2157816573
 C          4.4389744030        1.0360685551        2.3982280483
 C          4.0853185675       -0.2544453764        2.7331907687
 C          3.2458870491       -0.9953451959        1.8998172584
 N          2.8196841413       -2.2789557347        2.2637488456
 C          1.4608941807       -2.5877461764        2.1469916760
 C          0.5020980047       -1.5840348942        2.3062689254
 C         -0.8435480316       -1.8719173342        2.1734408412
 C         -1.2620763389       -3.1640135537        1.8994629002
 C         -0.3169171215       -4.1681251168        1.7646733487
 C          1.0312887108       -3.8866590499        1.8753176480
 C          3.7470451224       -3.1969148561        2.7608914464
 C          3.3818585357       -4.1649056940        3.6962998363
 C          4.3101499532       -5.0814183161        4.1495791443
 C          5.6196188940       -5.0388287210        3.7006164882
 C          5.9950745441       -4.0601181410        2.7957211133
 C          5.0711241387       -3.1488896619        2.3247309453
 C          2.8083335437       -0.4269408889        0.7043369364
 C          3.1647806573        0.8609206841        0.3648648009
 C         -0.3931927126        4.4611421139        1.0379214380
 C         -0.9050713080        3.2866894642        0.4794229322
 C         -2.2470884408        2.9965434917        0.5488154706
 C         -3.1393767878        3.8574204608        1.1941802935
 C         -4.5364471581        3.4432541352        1.3557870106
 C         -5.6202678748        4.3174277804        1.2857462926
 C         -6.9214893221        3.8592142842        1.3891197339
 C         -7.1788999558        2.5014551917        1.5748201366
 N         -8.4714183067        1.9556296382        1.5658362028
 C         -9.5363417735        2.4209002723        2.3121434001
 C        -10.8219358834        1.9439241024        2.0437920004
 C        -11.9001238390        2.3910922175        2.7801724107
 C        -11.7240850623        3.3232544402        3.7898363002
 C        -10.4510368971        3.7958602593        4.0635709333
 C         -9.3628199959        3.3493173955        3.3405360227
 C         -8.5076675026        0.7194178364        0.8753566312
 C         -8.5650727693       -0.5017498628        1.5416074122
 C         -8.1348112833       -1.6480944665        0.9032625931
 C         -7.6757140269       -1.6150949621       -0.4175110326
 C         -6.7847350003       -2.6616858528       -0.9261747370
 C         -6.6993116889       -3.9418957759       -0.3723960185
 C         -5.6058782583       -4.7495399120       -0.6121361057
 C         -4.5472931262       -4.3168247572       -1.4173806474
 C         -3.2725168488       -5.0034311569       -1.3980483077
 C         -2.1288036301       -4.3680888402       -1.7070388606
 C         -0.7961145971       -4.8267803775       -1.4813139567
 N         -0.3988606178       -5.9620324665       -0.9472731821
 C          0.9390874386       -5.8383788486       -0.7678547240
 C          1.8270906496       -6.7350026558       -0.1061032232
 C          1.3752519437       -7.9499147849        0.4191718572
 C          2.2246154002       -8.7576095865        1.1340815568
 C          3.5406268728       -8.3514152048        1.3451097168
 C          4.0009360903       -7.1644835699        0.8243265218
 C          3.1701507263       -6.3240620815        0.0691151602
 C          3.6392511736       -5.0731797222       -0.5013902438
 C          4.9880143731       -4.6990428109       -0.4531011937
 C          5.4312635501       -3.5094450434       -0.9825538553
 C          4.5367582260       -2.6365869824       -1.5935781189
 C          3.2096425423       -2.9782065407       -1.6824718572
 C          2.7388549015       -4.1850178180       -1.1476229133
 C          1.3793498875       -4.5911819871       -1.2231518379
 N          0.2607636822       -3.9608644386       -1.6901836589
 C          0.1327488622       -2.6579571180       -2.2169067594
 C          0.0510200889       -1.5664517464       -1.3576976823
 C         -0.0899746071       -0.2931882335       -1.8677902242
 C         -0.1884099725       -0.0871981119       -3.2457849138
 N         -0.3573572181        1.1983748961       -3.7527976109
 C          0.3622693061        2.2666827649       -3.1947061809
 C          1.7093916373        2.1109993827       -2.8733758415
 C          2.4280720177        3.1769706923       -2.3643793564
 C          1.8160821909        4.4020860558       -2.1576691043
 C          0.4734203382        4.5545192087       -2.4625272905
 C         -0.2521100463        3.4984241990       -2.9797306260
 C         -1.2038091616        1.4230515187       -4.8413132102
 C         -2.3699648660        0.6729719433       -4.9944462659
 C         -3.2012831887        0.8909971279       -6.0752286245
 C         -2.8932434687        1.8629190764       -7.0128885322
 C         -1.7418567423        2.6176219870       -6.8598280011
 C         -0.8991410620        2.4012113932       -5.7872896953
 C         -0.1296313495       -1.1916519907       -4.0999948659
 C          0.0321873344       -2.4636770387       -3.5912054767
 C         -4.7258384690       -3.1158241754       -2.1127098179
 C         -5.8067483312       -2.3069931620       -1.8628279924
 C         -7.8745356834       -0.4312327863       -1.1360850107
 C         -8.2560681224        0.7251347342       -0.4937665101
 C         -6.0921111620        1.6315731881        1.6989819439
 C         -4.8033726304        2.0937448074        1.5907849774
 C         -2.6420280731        5.0588769876        1.6965300947
 C         -1.2969253348        5.3597665240        1.6093091848
 H          1.3518904948        5.7612488481        1.0225651450
 H          1.6524577490        2.7228247350        1.0724354531
 H          5.0740909603        7.5349032031        0.4780737365
 H          6.9562441286        9.1503122742        0.2629293643
 H          9.2720818138        8.2973713928        0.1861185616
 H          9.7260986179        5.9264461636        0.2975957481
 H         10.0346777821        3.9995286905        0.2587790172
 H         10.4167303620        1.6089912226        0.2504498576
 H          8.5151055728        0.0350379714        0.4086977863
 H          6.2363056509        0.8996014772        0.6294984764
 H          5.0734204026        1.6149949944        3.0527585243
 H          4.4409730653       -0.6921619527        3.6534809799
 H          0.8150373792       -0.5762989077        2.5358600655
 H         -1.5694077769       -1.0801361419        2.2924475962
 H         -2.3128124551       -3.3865065130        1.7917207147
 H         -0.6308280302       -5.1778368455        1.5517933398
 H          1.7567609951       -4.6742091805        1.7495945444
 H          2.3699044570       -4.1933034407        4.0703105409
 H          4.0092029622       -5.8300946896        4.8672006284
 H          6.3412333977       -5.7574482717        4.0581650693
 H          7.0156980191       -4.0110555030        2.4446129605
 H          5.3664429547       -2.4008806266        1.6058552566
 H          2.1882476377       -1.0057875600        0.0404921147
 H          2.8221459244        1.2935833607       -0.5618237938
 H         -0.2367735743        2.6136524473       -0.0338254320
 H         -2.6207722731        2.0941981434        0.0876972345
 H         -5.4458840976        5.3682538041        1.1056806561
 H         -7.7463909146        4.5504062228        1.2976444402
 H        -10.9621573759        1.2220838113        1.2520395997
 H        -12.8873435600        2.0121268416        2.5598588215
 H        -12.5696930662        3.6742590680        4.3608962762
 H        -10.3006573180        4.5138032934        4.8566954859
 H         -8.3713291248        3.7042880495        3.5778694904
 H         -8.8434173877       -0.5279438250        2.5853049504
 H         -8.0644297655       -2.5617785419        1.4729839927
 H         -7.4813029175       -4.2994754762        0.2808987306
 H         -5.5345837272       -5.7094504261       -0.1208804880
 H         -3.2395203471       -6.0063951177       -0.9992445296
 H         -2.1726673073       -3.3511598383       -2.0693794431
 H          0.3437945056       -8.2191364965        0.2529426541
 H          1.8767214660       -9.6949035185        1.5421959654
 H          4.2062798495       -8.9730286752        1.9261071188
 H          5.0204333469       -6.8787395200        1.0264754448
 H          5.7111600003       -5.3563153399       -0.0001119161
 H          6.4799129049       -3.2549252174       -0.9302743842
 H          4.8871357621       -1.7015606123       -2.0067317385
 H          2.5210154889       -2.3191663369       -2.1868275842
 H          0.0751331651       -1.7327656343       -0.2921563394
 H         -0.1496768682        0.5529523591       -1.2008338483
 H          2.1866137595        1.1563707010       -3.0456612103
 H          3.4788595078        3.0595385146       -2.1410785981
 H          2.3832830973        5.2258516364       -1.7553638626
 H         -0.0145634425        5.5022210013       -2.2927958865
 H         -1.2975287118        3.6176483569       -3.2216433707
 H         -2.6195663129       -0.0767197013       -4.2584569808
 H         -4.1003343151        0.3020179207       -6.1820855204
 H         -3.5455598845        2.0310757105       -7.8556239910
 H         -1.4917529673        3.3756771863       -7.5869397966
 H          0.0023370699        2.9848496714       -5.6766013675
 H         -0.2089406910       -1.0414439504       -5.1657086256
 H          0.0870440510       -3.3139692283       -4.2548806305
 H         -3.9872158624       -2.7924134930       -2.8299128644
 H         -5.8550739267       -1.3490470129       -2.3554406050
 H         -7.6742138887       -0.3980034587       -2.1955528800
 H         -8.2970189113        1.6606016450       -1.0318100984
 H         -6.2652665229        0.5827534044        1.8797620780
 H         -3.9850477853        1.4005484956        1.7112492365
 H         -3.3131416608        5.7484059639        2.1876221952
 H         -0.9270948196        6.2871991037        2.0226720891
