126
 energy: -186.537891895968 gnorm: 0.000051480352 xtb: 6.7.1 (edcfbbe)
C           -1.23360527248707       10.75510565208097        0.44440935752712
C           -2.19138842192402        9.63284615410693        0.00427605773365
C           -3.54183763398013       10.22618863746722       -0.43705987464061
C           -1.57852662472872        8.90131290626209       -1.17435512193479
C           -1.30440189362807        9.60073163391066       -2.34192523605132
C           -0.77658018607501        8.98458999565127       -3.46097841687477
C           -0.52899736046256        7.62433040540107       -3.42849467499118
C           -0.79066071630677        6.90564722484620       -2.28128729597372
C           -1.29583492026154        7.53206161012925       -1.13792292729713
N           -1.54012221121269        6.78443176432550        0.00565531149926
C           -1.22581579758719        5.40253200200406        0.00604380408292
C            0.10325705462949        4.98874519954555        0.04546217890137
C            0.40862337226234        3.64387943330643        0.04514992971657
C           -0.61010485165037        2.69283468846351        0.00674746627167
C           -0.28652951287715        1.26742989595702        0.00603211847723
N            0.99690631304124        0.91869020895699        0.00588812354302
C            1.24530056785780       -0.38787383674373        0.00184986941434
C            2.64163445892702       -0.82028538925977        0.00096626519600
C            2.95577762979327       -2.17848791209550        0.01875137611794
C            4.27323231509351       -2.58635354406868        0.01803700303829
C            5.29594942109126       -1.64154646260141       -0.00086537749441
N            6.65017338677531       -2.06013538482710       -0.00241318482901
C            7.40626222567084       -1.90250809436478        1.15054175556564
C            6.81095039125441       -1.38351155716550        2.30427073631767
C            7.53910599834933       -1.20734221820035        3.46177713268920
C            8.87710094148066       -1.55580761531007        3.49384428872937
C            9.46058084411200       -2.09609643403608        2.36325114420820
C            8.75092788728742       -2.28552536575622        1.18512061152199
C            9.44373197817172       -2.91556293613304       -0.00781757174651
C            9.93630921604073       -4.31718280637115        0.39631444709458
C           10.63424345605883       -2.02844290009341       -0.41550617159143
C            8.51246811150888       -3.04906891283829       -1.19735154591073
C            8.99018397257722       -3.60250766563590       -2.37759988173798
C            8.20016081156509       -3.72284404027816       -3.50542272348724
C            6.89651040170808       -3.26265671984277       -3.46826717688043
C            6.39601420834160       -2.70966834442433       -2.30862428788510
C            7.18403160788384       -2.61346209325915       -1.15771347326761
C            4.98547342570807       -0.28425127592091       -0.01856391326163
C            3.66793617584902        0.12316650149350       -0.01749584667413
N            0.30166318561183       -1.32504004738319       -0.00154110510138
C           -0.95409529805863       -0.88687828825111        0.00165934754783
C           -2.02694811077803       -1.87954371551877        0.00106095932474
C           -3.35950670815640       -1.47237055321184        0.04927811838428
C           -4.37192596488047       -2.40871397946980        0.04911761119787
C           -4.06678427715681       -3.76654242786501       -0.00089769944299
N           -5.10762784849522       -4.72827007805832       -0.00335711307979
C           -5.32453985846263       -5.49206083989786        1.13506905237127
C           -4.54593324367212       -5.27366188469290        2.27566086938512
C           -4.73214800010652       -6.02355892393265        3.41760410868120
C           -5.70889239208342       -7.00218877563762        3.44766723089328
C           -6.50011339537646       -7.19951519616536        2.33163919653544
C           -6.33508666696206       -6.45835852827650        1.16930693124514
C           -7.26211729490627       -6.70206389530826       -0.00591068773020
C           -7.11492263287184       -8.16618209985393       -0.45889643422042
C           -8.70782832126686       -6.42585437684193        0.44592910697008
C           -6.93611565815617       -5.79941537046151       -1.18012222697184
C           -7.68673963081635       -5.89827227004705       -2.34389319979404
C           -7.41874480685019       -5.12680843355831       -3.45902505251881
C           -6.35830226579000       -4.23964324330653       -3.42655414420238
C           -5.59729353753288       -4.12024419923724       -2.28303966826916
C           -5.88539086279013       -4.87712986338962       -1.14327236466288
C           -2.73678378703736       -4.17636403919020       -0.04944951863318
C           -1.72458283302161       -3.23968185683681       -0.04767212936640
N           -1.29380216803083        0.39897164714290        0.00520411035401
C           -1.93978768402664        3.11025928848284       -0.03191685681260
C           -2.24555771250829        4.45499467023074       -0.03289587402374
C           -2.08478644224341        7.35282458570401        1.14873251645442
C           -2.26723177657330        6.57023537866027        2.29293239795253
C           -2.81504220849709        7.10487645864793        3.43970646772102
C           -3.18339635847648        8.43754271655449        3.47089919000599
C           -2.97603599739116        9.22074149365172        2.35103029765047
C           -2.42525508878621        8.70887984124989        1.18389507077302
H           -1.04467240528339       11.44669605059174       -0.37193702166492
H           -1.64903088707259       11.31673063914585        1.27647553524503
H           -0.28338565544380       10.32770739819910        0.75935871652707
H           -4.01544162084277       10.76356213492268        0.37984345791980
H           -3.41108725708118       10.91532560235691       -1.26673503086498
H           -4.20971179167659        9.42806218170419       -0.75599264230546
H           -1.50976623048955       10.65962223222384       -2.38611941138850
H           -0.57210934851952        9.55950768894216       -4.35122360133425
H           -0.13533833869101        7.11761033865000       -4.29699918718040
H           -0.60818921844470        5.84218193355551       -2.27153233346420
H            0.88630281476590        5.73211251935064        0.07503219376812
H            1.43274168475060        3.30807767520608        0.07998472511206
H            2.15277902773773       -2.89794878908869        0.03819504103037
H            4.52562356025282       -3.63647445321931        0.03107588555520
H            5.76404150099281       -1.12218253038008        2.29396203299974
H            7.05698719307588       -0.80108390257307        4.33845004793845
H            9.45935152265864       -1.41920817486078        4.39229223150974
H           10.50131545571741       -2.37962917101845        2.40667005987951
H           10.62534523868406       -4.26048620449912        1.23438163670755
H            9.09015948607760       -4.93611958889251        0.68910023813740
H           10.44638169023236       -4.80293483125059       -0.43090151076793
H           11.33165505530975       -1.91148678583142        0.40933451145958
H           11.17081771026123       -2.46000536260053       -1.25586118586676
H           10.27764281046626       -1.04198804125143       -0.70623799178081
H           10.01117963265889       -3.94995392623859       -2.42498482180901
H            8.60290808799497       -4.16131861915227       -4.40565347158750
H            6.26633412913408       -3.32892703197257       -4.34263821681105
H            5.38228082644199       -2.34016203056767       -2.29455563476958
H            5.78681221219721        0.43982976252735       -0.03217770728556
H            3.41146697702652        1.17038369650240       -0.03608286451026
H           -3.57997545600935       -0.41769499642038        0.09231955048408
H           -5.40689340794307       -2.10194619855248        0.08622400464824
H           -3.79140763096458       -4.50232151887205        2.26801722848191
H           -4.11488598285323       -5.83794234618653        4.28395357465814
H           -5.86213976265375       -7.59898199102117        4.33379466250390
H           -7.27080794967976       -7.95424047259673        2.37412227193781
H           -7.78283806336020       -8.38594682032585       -1.28710457125477
H           -6.09278862137190       -8.35146512583896       -0.78399283507339
H           -7.34526989065972       -8.84920078100977        0.35401394096123
H           -8.80246189636645       -5.39112477443197        0.77021245668257
H           -9.40792123397146       -6.59559490622311       -0.36738691218545
H           -8.98621438069876       -7.07116828812622        1.27443402051153
H           -8.50613528757822       -6.59970128471057       -2.38815396762602
H           -8.02499819957779       -5.22667238288581       -4.34635161075450
H           -6.11749470492657       -3.64071118879894       -4.29218543821239
H           -4.76285295725846       -3.43617066961748       -2.27352811652509
H           -2.51126680297219       -5.23197934607984       -0.08758965510268
H           -0.69016332962923       -3.54136234552556       -0.08978725307989
H           -2.71813144630512        2.36477072581396       -0.06682560554864
H           -3.27293677125757        4.78699012867143       -0.06284028508333
H           -1.96933186744270        5.53315969878502        2.28416697983500
H           -2.94908772808373        6.47828179404180        4.30886675908695
H           -3.61734475680193        8.86730660166702        4.36076638807148
H           -3.25148239147336       10.26365354164765        2.39422542515715
