  126
       -186.46857780
 C          7.1389654098        8.1639953000       -0.0610065595
 C          5.6001592324        8.1441054017       -0.0004540303
 C          5.0527523460        9.5805897890        0.0932747524
 C          5.0730946527        7.5052550265       -1.2697423929
 C          5.3744097278        8.0716055482       -2.5003828574
 C          4.9222859013        7.5268121015       -3.6882260040
 C          4.1460776332        6.3801799373       -3.6588408383
 C          3.8301776494        5.7966050597       -2.4520229688
 C          4.2836104572        6.3476647843       -1.2470971943
 N          3.9476425004        5.7399743939       -0.0544771252
 C          3.1361913488        4.5680321696       -0.0786509224
 C          3.7327020411        3.3085003608       -0.1115297444
 C          2.9499194798        2.1776204891       -0.1216889514
 C          1.5517856545        2.2791135832       -0.1002714533
 C          0.7320889069        1.0900220304       -0.0941554063
 N          1.3367718798       -0.1019872121       -0.0942100561
 C          0.5547165591       -1.1863181232       -0.0668524488
 C          1.1793042052       -2.4880291968       -0.0534085755
 C          0.4000130209       -3.6527797176       -0.0153689916
 C          0.9968712886       -4.8919924518        0.0051116489
 C          2.3868294614       -4.9959741071       -0.0132799156
 N          3.0072103519       -6.2792380753        0.0121730167
 C          3.3646755640       -6.8245366710        1.2286081576
 C          3.0939845746       -6.1171456073        2.4065709494
 C          3.4406127597       -6.6325594878        3.6357306999
 C          4.0644676365       -7.8664532569        3.7150940953
 C          4.3294977409       -8.5693410334        2.5541742171
 C          3.9913660251       -8.0757076173        1.3019528845
 C          4.3025914892       -8.8929764534        0.0641041202
 C          3.5641142957      -10.2406334211        0.1654660419
 C          5.8236904260       -9.1235095825       -0.0060238686
 C          3.8598469715       -8.1906667171       -1.2038605693
 C          4.0680834077       -8.7979397831       -2.4342620903
 C          3.6874669764       -8.1988546739       -3.6209894737
 C          3.0811936160       -6.9540546353       -3.5906941869
 C          2.8616503091       -6.3273168126       -2.3841545833
 C          3.2428691113       -6.9327203277       -1.1803233129
 C          3.1725977249       -3.8452291707       -0.0539896580
 C          2.5761495140       -2.6060932209       -0.0734086520
 N         -0.7803742257       -1.1140872998       -0.0455254210
 C         -1.3274182710        0.1058452481       -0.0567301381
 C         -2.7676076600        0.2158882739       -0.0368645316
 C         -3.3874751415        1.4726172364       -0.0682655606
 C         -4.7592030858        1.5753667793       -0.0470799378
 C         -5.5433980531        0.4243802863        0.0085764399
 N         -6.9647181602        0.5313134018        0.0323755329
 C         -7.6018422845        0.7150288326        1.2429649272
 C         -6.8429396559        0.7766786499        2.4183210612
 C         -7.4480918439        0.9644511290        3.6411575345
 C         -8.8249416971        1.0931808152        3.7168433837
 C         -9.5778389375        1.0258405804        2.5589764846
 C         -8.9961839142        0.8360013773        1.3132990905
 C         -9.8729745453        0.7642920165        0.0791433432
 C        -10.8592507176       -0.4071806200        0.2419408054
 C        -10.6416019423        2.0919921816       -0.0573695112
 C         -9.0595928324        0.5456214257       -1.1808252625
 C         -9.7041623302        0.4473213359       -2.4059802718
 C         -9.0094690859        0.2580984372       -3.5864750651
 C         -7.6278262743        0.1679301682       -3.5554987624
 C         -6.9610787151        0.2619500571       -2.3541004708
 C         -7.6620426391        0.4459389546       -1.1558020750
 C         -4.9386033304       -0.8312313916        0.0404474603
 C         -3.5672360608       -0.9342953375        0.0165827983
 N         -0.5984815586        1.2265961568       -0.0802675177
 C          0.9638634974        3.5513435655       -0.0746102901
 C          1.7470462902        4.6822888061       -0.0629158835
 C          4.3752152629        6.2306948418        1.1627478504
 C          4.0043238744        5.5699100553        2.3405254531
 C          4.4158040524        6.0334274197        3.5703686327
 C          5.2053941660        7.1684038052        3.6508242069
 C          5.5706778890        7.8251173355        2.4900829028
 C          5.1720618480        7.3810178017        1.2370716892
 H          7.4856462948        8.7213725910       -0.9266596622
 H          7.5560020963        8.6248994133        0.8298980827
 H          7.5194939278        7.1468696998       -0.1321292962
 H          5.4240675409       10.0792880953        0.9841243145
 H          5.3487274057       10.1653991491       -0.7731602104
 H          3.9655467208        9.5599326945        0.1388881707
 H          5.9798281772        8.9645078003       -2.5405125388
 H          5.1754366461        7.9932182114       -4.6280248431
 H          3.7867421461        5.9393657813       -4.5764459451
 H          3.2267254675        4.9026770300       -2.4297493903
 H          4.8107797769        3.2364707366       -0.1255196059
 H          3.3939655193        1.1950539795       -0.1441836526
 H         -0.6737971349       -3.5533661799       -0.0008099358
 H          0.4015317438       -5.7932530661        0.0359164244
 H          2.6067609712       -5.1566899285        2.3458647475
 H          3.2232959382       -6.0709507657        4.5317170552
 H          4.3416850873       -8.2796602505        4.6727976728
 H          4.8144980244       -9.5304946355        2.6332204646
 H          3.8666974683      -10.7822899543        1.0572216033
 H          2.4901583394      -10.0711113841        0.2142952582
 H          3.7741545314      -10.8637167760       -0.6992967650
 H          6.1791248448       -9.6379321304        0.8823173993
 H          6.0853514914       -9.7222305347       -0.8739421266
 H          6.3397080383       -8.1680994239       -0.0794979926
 H          4.5410374579       -9.7673740102       -2.4751411095
 H          3.8637455018       -8.6998072598       -4.5605548945
 H          2.7788368997       -6.4704909394       -4.5073544308
 H          2.3908999563       -5.3569804991       -2.3614266247
 H          4.2486786899       -3.9425559635       -0.0685009120
 H          3.1681620868       -1.7051649683       -0.1042643528
 H         -2.7653718016        2.3525053517       -0.1113337392
 H         -5.2427298939        2.5412905682       -0.0719602780
 H         -5.7706371782        0.6740406843        2.3608310371
 H         -6.8445548565        1.0098897230        4.5350843710
 H         -9.3098867433        1.2427187557        4.6693729200
 H        -10.6501107396        1.1250537732        2.6352502888
 H        -11.5199352242       -0.4801859510       -0.6173020120
 H        -10.3107257385       -1.3426485075        0.3342825887
 H        -11.4704736040       -0.2789136389        1.1307493273
 H         -9.9395411340        2.9156062596       -0.1724324650
 H        -11.2944416565        2.0741044694       -0.9255561137
 H        -11.2496880534        2.2799337907        0.8230224074
 H        -10.7803749084        0.5202317892       -2.4475498039
 H         -9.5425768798        0.1846501629       -4.5220095123
 H         -7.0685051238        0.0254868668       -4.4677383632
 H         -5.8847110134        0.1951508375       -2.3316005561
 H         -5.5601011126       -1.7141184750        0.0832858546
 H         -3.0819749183       -1.8970535012        0.0412635604
 H         -0.1122935697        3.6208785935       -0.0602346249
 H          1.2997159429        5.6656429823       -0.0400497771
 H          3.3878729543        4.6868147914        2.2793007710
 H          4.1197661495        5.5085123363        4.4660605597
 H          5.5337615827        7.5407145348        4.6091560511
 H          6.1842696203        8.7097251030        2.5699605586
