  56
        -84.74164888
 C          0.8133014846        2.9207845077       -1.3262836144
 C          0.2988237779        0.5093585089        0.1448527888
 C         -1.7028220840        1.3464242472        2.2613457092
 C          1.2764022195       -0.4160507855        0.7877927990
 C          2.7799380543        0.6488144432       -0.3231869561
 C          3.9503251216       -0.3437781444       -0.4420257672
 C          3.3889849693       -2.1857011771        0.6053235201
 C          2.0217653360       -2.6863346219        0.9272679656
 C          0.9865933190       -1.8383744470        0.9523544683
 N         -0.3475766568       -2.2161776934        0.8426454635
 C         -1.1890461814       -1.5197451611       -0.0225428573
 C         -2.1192045254       -2.1497201306       -0.7469100068
 C         -3.2505114756       -1.4338205051       -1.3884582122
 C         -4.0237684178        0.5360653259       -0.8189137760
 C         -2.8998431987        1.2613679270       -0.0536982500
 C         -1.1175641659       -0.0183288388        0.0206780554
 O          1.9645704486        3.6388588013       -1.0953861539
 S          0.1837819255        2.3493442034        0.3688180225
 O          1.2894892835        2.8539547101        1.2135853600
 C          1.4352385285        0.0063678449       -0.7028485352
 C          2.5954937628        0.2281279259        1.1527466955
 C          3.7697556167       -0.7521139565        1.0276045360
 C          3.5782970102       -1.7675702566       -0.9070741344
 C          2.4077844386       -1.8567560411       -1.8346464982
 C          1.3961526697       -0.9936421710       -1.7695734450
 C         -2.1904631589        0.4926157259        1.0904358786
 C         -3.0118883786       -0.6213797352        1.6742441791
 C         -4.0256042335       -1.2022253601        1.0501447542
 C         -4.3319738001       -0.9020060046       -0.3670492120
 C         -2.9940089263        0.0135004444       -1.8364017625
 C         -1.8813496617        0.7469688531       -1.0798644255
 H          2.0947293914        3.5639043323       -0.1139929593
 H          0.0215190391        3.5591366481       -1.7342666410
 H          0.9912933898        2.0585608906       -1.9718219661
 H         -1.6555443520        2.4031638731        2.0169577540
 H         -2.3929353805        1.2426071672        3.0977217833
 H         -0.7203532491        1.0202107334        2.5946075063
 H          2.9973340046        1.6572606838       -0.6535144599
 H          4.8775117814        0.0651408037       -0.8340125355
 H          4.1438661004       -2.9142620005        0.9036787582
 H          1.8714425143       -3.7540665371        0.9775267232
 H         -0.4871807738       -3.2189340400        0.8195468110
 H         -2.1733788072       -3.2293828133       -0.7267510582
 H         -3.7016121018       -2.0462075682       -2.1692824979
 H         -4.8766111387        1.1485877183       -1.0980012503
 H         -3.0590981434        2.3208686135        0.1265652842
 H          2.6032226211        0.9209438449        1.9874268918
 H          4.5572925898       -0.6556172666        1.7693467177
 H          4.4305312129       -2.2883710860       -1.3465494719
 H          2.4349899287       -2.6232351570       -2.5952396325
 H          0.5456236257       -1.0390530216       -2.4346057150
 H         -2.7619835005       -0.9094043518        2.6850922670
 H         -4.6081735335       -1.9694493437        1.5383758615
 H         -5.3374392511       -1.2234853142       -0.6372042221
 H         -3.0577726885        0.2121430650       -2.9032283248
 H         -1.2751168287        1.4163201696       -1.6824214007
