56
 energy: -84.764443336198 gnorm: 0.000091505629 xtb: 6.7.1 (edcfbbe)
C            0.82006262728771        2.95003458673285       -1.31960740881020
C            0.29957345687348        0.50685837320976        0.13382769296103
C           -1.71022541763673        1.35828696687028        2.25511865508351
C            1.27698492678380       -0.41860912346510        0.78089270082777
C            2.78611089681445        0.64060001769399       -0.32633306904954
C            3.95638674110386       -0.35355317915296       -0.44154650128385
C            3.38904258722816       -2.19402892777935        0.60629799499084
C            2.02032085273350       -2.69057211545051        0.92758497906336
C            0.98584353463899       -1.84148722544144        0.94975165128450
N           -0.34910142829277       -2.21630994318979        0.84523827378732
C           -1.19278285560071       -1.52130149225837       -0.02195409842451
C           -2.12432845608200       -2.15514056284800       -0.74080028206902
C           -3.25719629298246       -1.44321279152678       -1.38342838815218
C           -4.03198555985770        0.52732259092206       -0.81967406002932
C           -2.90763675077872        1.25786804432910       -0.05966810287355
C           -1.12032899067440       -0.01916971856758        0.01618938322102
O            1.96948027130200        3.67812485505506       -1.09126840488696
S            0.19636973527518        2.34603492761126        0.36361837950707
O            1.30925746699509        2.82025014219301        1.21918201013471
C            1.43989674297809        0.00075806735181       -0.70941213050734
C            2.59776651633188        0.22143464322259        1.14973916365346
C            3.77132358361176       -0.76064779875465        1.02791081587354
C            3.58369661590374       -1.77752193811102       -0.90636650307687
C            2.41689903412972       -1.86413866336400       -1.83838793724978
C            1.40577388317315       -1.00021152187757       -1.77723534260583
C           -2.19310786642607        0.49645824347061        1.08725612720315
C           -3.01194450397846       -0.61736160973802        1.67766741875738
C           -4.02618945968643       -1.20203221911530        1.05761811006354
C           -4.33653165233167       -0.90935128560869       -0.36069221264460
C           -3.00289328718635        0.00263081109540       -1.83710469406210
C           -1.88921301561058        0.74098548650162       -1.08520057783123
H            2.10278306328714        3.65181945378631       -0.11111832999299
H            0.01924410182057        3.58650656504016       -1.71233345933763
H            1.00372714487689        2.10211999312163       -1.98390219521177
H           -1.63790514522387        2.41073297012043        1.99932527488891
H           -2.41878120653250        1.27752356077194        3.07828127093512
H           -0.74054625506504        1.01947120275730        2.61420610116460
H            3.00603383438793        1.65074112981527       -0.65543857850625
H            4.88421092804834        0.05649226484284       -0.83150285368754
H            4.14188327941687       -2.92362406842723        0.90814470336290
H            1.86747519991268       -3.75801802059568        0.98138070689665
H           -0.49152499030458       -3.21892230999163        0.82659034798597
H           -2.17684219316642       -3.23504126446658       -0.71407218128446
H           -3.70926654278083       -2.05961176082849       -2.16074576249651
H           -4.88636351937573        1.13738858279050       -1.09946827820740
H           -3.06940087085407        2.31767078455708        0.11577382496583
H            2.60679170891735        0.91547128037562        1.98518380650517
H            4.55637655324217       -0.66269956992123        1.77245147766226
H            4.43743767757098       -2.29944383815701       -1.34200344073067
H            2.44611725720555       -2.62919153010114       -2.60069553534155
H            0.56092821836020       -1.04131022373668       -2.44891517288153
H           -2.76131790472174       -0.89863841212993        2.69037087001493
H           -4.60728267328314       -1.96738086896217        1.55163293606189
H           -5.34200651088090       -1.23472598589448       -0.62675202268073
H           -3.06733353435252        0.19705796196811       -2.90455147027558
H           -1.28259284573085        1.40884647506406       -1.69008890396166
