56
 energy: -84.700518690832 gnorm: 0.000063026553 xtb: 6.7.1 (edcfbbe)
C            0.85421595761844        2.95530171619146       -1.31246786097990
C            0.35947225601586        0.44161152013280        0.11632594132412
C           -1.61072829557958        1.30148450843444        2.28436839323785
C            1.16989984395130       -0.36075460981318        1.10605314420052
C            2.71341277479985        0.55538665185011       -0.39103988889493
C            3.88552836257313       -0.43054186189191       -0.50868534084593
C            3.32724438109983       -2.23036862977662        0.62795282235427
C            2.00487338675632       -2.65399702575156        1.07928442241253
C            0.95494007096779       -1.74020820884865        1.04400864088384
N           -0.31387773176192       -2.22140769631950        0.73820087566066
C           -1.18257362630897       -1.51914610759692       -0.07541476467873
C           -2.12708853277044       -2.13068342358102       -0.80155553608988
C           -3.25865141611507       -1.38450538857962       -1.40368128826745
C           -3.99602666248551        0.58259845810647       -0.77529089346838
C           -2.85165181457936        1.27982422489110       -0.01369952905721
C           -1.08671682572191       -0.02430903210952        0.00429041862335
O            2.02161539793013        3.64756197039351       -1.07571364337969
S            0.22534491914146        2.32534639943255        0.35641586116180
O            1.32839916551623        2.80674206572790        1.22348988345183
C            1.37644753610164        0.15098047242402       -0.96982476396030
C            2.56480209415149        0.18911527283191        1.11061592292760
C            3.73901748253204       -0.79493957271883        0.97577572503483
C            3.47162210548602       -1.83835785573725       -0.95575958674456
C            2.30743728018241       -1.89412617463874       -1.85669740245540
C            1.29249099991051       -0.97860815610031       -1.79583175721433
C           -2.13170216917807        0.47991121353874        1.10384086656844
C           -2.95857630588342       -0.63651739486609        1.67779875722852
C           -3.98703609778035       -1.19438377257346        1.05639928369461
C           -4.31381459187872       -0.86114495220998       -0.34908676125102
C           -2.98902801244931        0.07037530118778       -1.82059764903687
C           -1.85451259379812        0.77471182819769       -1.06631054235799
H            2.14440135576245        3.61500889732630       -0.09296299038734
H            0.06647823413409        3.61459506278619       -1.69341398474191
H            1.01552764998849        2.10134623167874       -1.98179051462589
H           -1.54542529667082        2.36212857274910        2.06171784155634
H           -2.28926274825942        1.19346791697511        3.12932231484301
H           -0.62831181254760        0.95002382752545        2.59597349038624
H            2.99832960947921        1.57943675478704       -0.62700276828344
H            4.80212807385561       -0.03237623535352       -0.93719095071682
H            4.09172524257784       -2.96697153057172        0.87425799452574
H            1.77721095504333       -3.71080380573818        1.06895739852344
H           -0.38762983651817       -3.22814364274287        0.67305749249242
H           -2.18317844513869       -3.21032850320691       -0.81164523130497
H           -3.73441989954695       -1.97074752240651       -2.19018164049220
H           -4.84615500280188        1.21034724024663       -1.02761176275018
H           -2.99657376824492        2.33701999499169        0.19026432913742
H            2.71415268232065        0.98633322809837        1.83726670951547
H            4.54188455758470       -0.68085100392476        1.69973336384526
H            4.29980746330166       -2.41624347017373       -1.36664194968394
H            2.20864946261039       -2.75634477484182       -2.49966196175580
H            0.36978485564946       -1.16485531495397       -2.33160427616355
H           -2.69932690691139       -0.94603211741631        2.68015739683284
H           -4.57082253642925       -1.96524039228053        1.53864373988759
H           -5.32762720657740       -1.16576375758877       -0.60797368230148
H           -3.06592539471909        0.29413446188764       -2.88145347342821
H           -1.24602615861290        1.44597301127615       -1.66495454281243
