  47
  -72.8775980700000       0.251149253533077      !
 C         -5.1169295871       -2.4849904103        0.0089822920
 C         -4.1150419386       -3.1776255161        0.6701018818
 C         -2.8174797449       -2.7064618595        0.6492184126
 C         -2.5030274041       -1.5287796666       -0.0302619113
 C         -1.1163509930       -1.0889427645       -0.0183650603
 N         -0.1064185525       -1.9229962550       -0.0175501134
 C          1.0144783347       -1.1562606733       -0.0154856509
 C          2.3688376164       -1.5903786965       -0.0548172934
 C          2.6925460156       -2.9499666715       -0.1123328792
 C          4.0040518399       -3.3478864627       -0.1833898312
 C          5.0109913686       -2.3847293944       -0.2024911063
 C          4.7041756058       -1.0455108371       -0.1404991373
 C          3.3763452970       -0.5990068005       -0.0568496624
 C          3.0211129112        0.8057433499        0.0469110359
 C          4.0002027972        1.8059177980        0.1294106794
 C          3.6768941058        3.1340677568        0.2754235475
 C          2.3437592706        3.5216636323        0.3640471910
 C          1.3533397376        2.5745772669        0.2785365477
 C          1.6608009911        1.2181388776        0.0992428925
 C          0.6748576415        0.1957409773        0.0031182546
 N         -0.7015294061        0.2253489923       -0.0106310767
 C         -1.5553184386        1.3453779845       -0.0222955775
 C         -2.4260829789        1.5598590227        1.0394886357
 C         -3.2881145466        2.6412914658        1.0097644237
 C         -3.2837420047        3.5073636885       -0.0710039136
 C         -2.4152406492        3.2919074817       -1.1294227276
 C         -1.5526341919        2.2117013897       -1.1119234134
 C         -3.5105573717       -0.8519525491       -0.7146897307
 C         -4.8080367260       -1.3292669353       -0.6882244591
 H         -6.1331030953       -2.8499132874        0.0286549915
 H         -4.3481493125       -4.0876246422        1.2037011895
 H         -2.0248464547       -3.2359325430        1.1546114032
 H          1.8818057256       -3.6616338774       -0.1058192207
 H          4.2587405141       -4.3963781839       -0.2293713988
 H          6.0447553544       -2.6925156460       -0.2664224058
 H          5.5169671690       -0.3371579996       -0.1613652563
 H          5.0436376928        1.5388736524        0.0884342439
 H          4.4595907655        3.8758646263        0.3356927254
 H          2.0879370450        4.5615158047        0.5043806027
 H          0.3228834064        2.8788003278        0.3678232063
 H         -2.4233221305        0.8762880201        1.8753771517
 H         -3.9642627423        2.8074428974        1.8345646273
 H         -3.9574265035        4.3503819687       -0.0901985958
 H         -2.4107974259        3.9649456931       -1.9735517676
 H         -0.8709107999        2.0329940091       -1.9305406397
 H         -3.2833957782        0.0344413808       -1.2870967135
 H         -5.5816899201       -0.7965433432       -1.2217178435
  47
  -72.8775970300000       0.250873010128496      !
 C         -5.1165208744       -2.4847385678       -0.0158451145
 C         -4.8000517598       -1.3305324098       -0.7124153778
 C         -3.5027806911       -0.8522154008       -0.7238040737
 C         -2.5029644812       -1.5267314204       -0.0254578572
 C         -1.1159213928       -1.0879718306       -0.0066118157
 N         -0.1064360039       -1.9224477463       -0.0051537091
 C          1.0147683703       -1.1560489042       -0.0053078687
 C          2.3687906444       -1.5907798098       -0.0478659357
 C          2.6915411182       -2.9505791572       -0.1066071610
 C          4.0025605292       -3.3492679232       -0.1811247729
 C          5.0100467889       -2.3867272126       -0.2007434175
 C          4.7041607918       -1.0473258370       -0.1382276248
 C          3.3767373582       -0.5998899117       -0.0536116925
 C          3.0222761160        0.8054296821        0.0451843849
 C          4.0018522374        1.8060198356        0.1162634123
 C          3.6794151009        3.1352706987        0.2538611473
 C          2.3467907404        3.5236572691        0.3462128257
 C          1.3558435205        2.5761325039        0.2722649478
 C          1.6622632234        1.2184693773        0.1006401309
 C          0.6756965647        0.1961017875        0.0117460799
 N         -0.7006878981        0.2260993933       -0.0001277727
 C         -1.5552033988        1.3456236357       -0.0126770249
 C         -2.4241790849        1.5619495059        1.0500233228
 C         -3.2882981572        2.6417705472        1.0184998423
 C         -3.2882704122        3.5037179627       -0.0654552910
 C         -2.4212819989        3.2865483875       -1.1247217398
 C         -1.5560935896        2.2085203158       -1.1050066288
 C         -2.8249114796       -2.7018634754        0.6545905519
 C         -4.1225426576       -3.1738434363        0.6607891101
 H         -6.1324324937       -2.8505314684       -0.0084956572
 H         -5.5675933805       -0.7992001911       -1.2564476991
 H         -3.2690898147        0.0331317993       -1.2956404299
 H          1.8802760390       -3.6615830944       -0.0986845536
 H          4.2564522746       -4.3977984761       -0.2297959234
 H          6.0433957428       -2.6951892901       -0.2667123709
 H          5.5173800708       -0.3395729940       -0.1599247468
 H          5.0450110865        1.5383351700        0.0725502858
 H          4.4624820014        3.8772810072        0.3051973995
 H          2.0918513635        4.5645437758        0.4799533242
 H          0.3257164784        2.8811330615        0.3632819531
 H         -2.4184568378        0.8812533390        1.8882190436
 H         -3.9629631310        2.8095195327        1.8441357887
 H         -3.9644102966        4.3446706675       -0.0868087241
 H         -2.4213588225        3.9555419781       -1.9721419755
 H         -0.8776980759        2.0262635286       -1.9261070057
 H         -2.0385767203       -3.2298604365        1.1712416397
 H         -4.3616669255       -4.0814713613        1.1948499260
  47
  -72.8775961700000       0.250644807610132      !
 C         -5.1143357645       -2.4588714953       -0.3789772627
 C         -4.8144442701       -1.3985299646        0.4593733896
 C         -3.5176780910       -0.9291115547        0.5594926991
 C         -2.5016299592       -1.5171472298       -0.1910839677
 C         -1.1148598317       -1.0817922234       -0.1289746375
 N         -0.1046579725       -1.9110159244       -0.2159827715
 C          1.0157644211       -1.1511233796       -0.1089635721
 C          2.3698151058       -1.5879046420       -0.1042413095
 C          2.6935198282       -2.9450941067       -0.2033769395
 C          4.0043159195       -3.3496656213       -0.1656558308
 C          5.0105864870       -2.3960729314       -0.0244332480
 C          4.7037807793       -1.0586708899        0.0688983434
 C          3.3766401609       -0.6045126027        0.0265855029
 C          3.0217255182        0.8027080814        0.0906691650
 C          4.0007320711        1.8049839447        0.1427206120
 C          3.6776670200        3.1411057153        0.1594248335
 C          2.3451328622        3.5373879931        0.1076524140
 C          1.3546662224        2.5874570344        0.0648133519
 C          1.6617769335        1.2192332400        0.0751441229
 C          0.6757094589        0.1935969335        0.0313966048
 N         -0.7005513018        0.2230608696        0.0286807393
 C         -1.5558215842        1.3343966758        0.1623802252
 C         -1.5869554197        2.0493485186        1.3562921964
 C         -2.4537899608        3.1176928774        1.4916160060
 C         -3.2918101345        3.4717293347        0.4462588960
 C         -3.2611078969        2.7571339650       -0.7394456010
 C         -2.3955426281        1.6881315623       -0.8865548970
 C         -2.8075224511       -2.6004102993       -1.0157265874
 C         -4.1044516450       -3.0642289768       -1.1099044097
 H         -6.1298412016       -2.8179730383       -0.4550854617
 H         -5.5944551346       -0.9354527438        1.0459327592
 H         -3.2980079963       -0.1201690282        1.2392986034
 H          1.8831965889       -3.6503798435       -0.3019181123
 H          4.2588834947       -4.3965819820       -0.2396378645
 H          6.0438180203       -2.7099202038        0.0122091083
 H          5.5160431538       -0.3582463183        0.1801427252
 H          5.0439486490        1.5345450658        0.1608508282
 H          4.4603651304        3.8842845061        0.1990876098
 H          2.0899310004        4.5867427520        0.0965884756
 H          0.3245695628        2.9003703062        0.0059657907
 H         -0.9298060393        1.7622530464        2.1642197141
 H         -2.4777480976        3.6719470401        2.4177126750
 H         -3.9692901952        4.3045134052        0.5576144087
 H         -3.9124969141        3.0322819513       -1.5548338955
 H         -2.3656421216        1.1214715072       -1.8052206046
 H         -2.0089736988       -3.0632994356       -1.5739415368
 H         -4.3308566412       -3.9001904477       -1.7551797770
  47
  -72.8775836000000       0.247332928728295      !
 C         -5.1137167401       -2.4837873662       -0.2740190586
 C         -4.0842316178       -3.1617849491       -0.9075934343
 C         -2.7890414085       -2.6919532460       -0.8213513008
 C         -2.5033297044       -1.5304664394       -0.1019374785
 C         -1.1178597288       -1.0909808610       -0.0491984789
 N         -0.1069046570       -1.9244477963       -0.0593125239
 C          1.0127303610       -1.1589404728        0.0035165270
 C          2.3667555695       -1.5937234971        0.0508278803
 C          2.6912428143       -2.9543280868        0.0496244143
 C          4.0021501675       -3.3545664382        0.1186620883
 C          5.0078668849       -2.3928513285        0.1929077438
 C          4.7002090944       -1.0524218863        0.1920257649
 C          3.3728735932       -0.6030452796        0.1162541423
 C          3.0177210324        0.8052039091        0.0811163332
 C          3.9962572948        1.8092311193        0.0794870591
 C          3.6738825221        3.1432597058       -0.0004944235
 C          2.3426982247        3.5342349862       -0.1000317441
 C          1.3523989013        2.5831770202       -0.0902969187
 C          1.6582632692        1.2191144433        0.0197103238
 C          0.6722708618        0.1926108070        0.0376362047
 N         -0.7037770788        0.2218476437        0.0153924231
 C         -1.5549013757        1.3443954956        0.0402466238
 C         -1.6190859803        2.1437853586        1.1782755328
 C         -2.4772643123        3.2271416417        1.2058853755
 C         -3.2737800906        3.5129993016        0.1081313291
 C         -3.2109041435        2.7141673355       -1.0213049989
 C         -2.3538415415        1.6288201939       -1.0603800478
 C         -3.5394520497       -0.8695809857        0.5550664107
 C         -4.8346632737       -1.3449258517        0.4622842049
 H         -6.1281021543       -2.8472201608       -0.3453520970
 H         -4.2943104422       -4.0591157804       -1.4707138422
 H         -1.9754440385       -3.2095926302       -1.3048109695
 H          1.8815181119       -3.6653300611       -0.0016616152
 H          4.2573179766       -4.4039378481        0.1189933473
 H          6.0413308859       -2.7026109580        0.2520419665
 H          5.5122497917       -0.3455892833        0.2535568906
 H          5.0387411248        1.5413993802        0.1342547974
 H          4.4562063735        3.8878319648        0.0007071258
 H          2.0881494671        4.5800717822       -0.1878743228
 H          0.3236784971        2.8914277000       -0.1844164075
 H         -0.9931039896        1.9093573718        2.0271036068
 H         -2.5267235693        3.8471904753        2.0883735027
 H         -3.9441373351        4.3585360686        0.1347360716
 H         -3.8301467663        2.9359333442       -1.8772151758
 H         -2.2991881116        0.9969681121       -1.9343124907
 H         -3.3381807743        0.0029027983        1.1573980803
 H         -5.6302735778       -0.8235965349        0.9743768398
