112
 energy: -188.168820082934 gnorm: 0.000054516528 xtb: 6.7.1 (edcfbbe)
N            0.39205596706409       -1.92208690501750       -3.43201358755402
C            0.31633089190917       -1.41413426541454       -2.40790377506586
C            0.18929805023319       -0.75506261477075       -1.16154603682600
C            1.20905978570991        0.10563649633112       -0.72784458830317
N            2.38561972600992        0.23030523415743       -1.46448592593732
C            2.97223785725583        1.44571892851020       -1.78932947525324
C            2.38277269415461        2.69558889027541       -1.87592291716672
C            3.18564425815681        3.75884061272212       -2.24504353098890
C            4.53318010053917        3.57796395794145       -2.54002177551190
C            5.10591718911414        2.32060239896270       -2.51947788037756
C            4.31725284357646        1.23889096222563       -2.15632885461481
C            4.54654144795795       -0.17870004637532       -2.08099833700711
C            5.66439118975125       -0.97038039711226       -2.30321998104863
C            5.55021252905891       -2.33718880841357       -2.14626834439988
C            4.33876307989801       -2.91381183941372       -1.77930328205237
C            3.21590095578643       -2.14320283270088       -1.54182998887812
C            3.32753998274894       -0.77049815845452       -1.68659106902358
C            1.00210017126748        0.85323210575233        0.44699658421333
N            1.99730930902862        1.70250134241031        0.93883482173616
C            1.95302735125065        3.08919369418481        0.96890229217291
C            0.86417192149918        3.93588895811588        0.85109367233491
C            1.10136636149856        5.29678529893354        0.89061322066223
C            2.39018310181013        5.80401856728387        1.03241215782629
C            3.48013644427921        4.96281139727031        1.13261819044267
C            3.26673496273881        3.59140669999113        1.10109086907449
C            4.14667599641876        2.45695466513861        1.15319840210307
C            5.53034252859873        2.30903427306430        1.23534286065941
C            6.07277784204980        1.04395775348866        1.25834875205826
C            5.24959046078185       -0.08781220049312        1.28107314496158
C            5.62809196626075       -1.47306749754576        1.38182451412634
C            6.90032031163480       -2.03691261741622        1.37589608008453
C            7.04127536359270       -3.40620730516218        1.46538583783935
C            5.92677777381576       -4.23206562479106        1.56969245888333
C            4.65298568095281       -3.69755081856522        1.58133216736015
C            4.51588460355877       -2.32466189431243        1.48229763134384
S            2.99749603762128       -1.45619300538386        1.44207572395588
C            3.85541612448154        0.05592855872951        1.23368230108885
C            3.31652710444628        1.32077913122612        1.08021763849227
C           -0.19849835753284        0.71605193702016        1.15546073860141
C           -0.32037929221285        1.37597884388546        2.40182901736534
N           -0.38889169888502        1.88425565392022        3.42628818222975
C           -1.21619827557001       -0.14754994475624        0.72439532301806
N           -2.38693088354719       -0.28918082848192        1.46705169313732
C           -2.95959208887719       -1.51621400525194        1.77410473567881
C           -2.35717944033688       -2.76148873869513        1.83375697370932
C           -3.14639211376139       -3.83942231935175        2.18952378085123
C           -4.49363713340587       -3.67767916896174        2.49658328384975
C           -5.07937194566892       -2.42616503237229        2.50155820621123
C           -4.30422382328864       -1.33007296215949        2.15246546801297
C           -4.54853149360882        0.08610923812270        2.10276209541506
C           -5.67349560723055        0.86121726956409        2.34577477626391
C           -5.57520247358893        2.23182064757039        2.21255080969799
C           -4.37192180224754        2.82799839100753        1.85045130303895
C           -3.24190066923238        2.07415294826187        1.59344673629465
C           -3.33806750663006        0.69778800181084        1.71183937204031
C           -1.01464224046517       -0.88521737253150       -0.45854005967264
N           -2.02622107411652       -1.70672548852950       -0.96396733036295
C           -2.02016349631622       -3.09321127374542       -1.02102919317143
C           -0.95485373976914       -3.97213181147537       -0.92675597862111
C           -1.23007120659472       -5.32482005026298       -0.99262489623734
C           -2.53305570051959       -5.79324848846763       -1.13787656167064
C           -3.59946069025787       -4.92022645214971       -1.21680280872929
C           -3.34771671855228       -3.55628166673268       -1.15896522714500
C           -4.19626788192709       -2.39731022615725       -1.18872762878537
C           -5.57524088717315       -2.20928030041664       -1.26827889086052
C           -6.08210045041327       -0.92928517917391       -1.27103875259705
C           -5.22771914712973        0.17932767674826       -1.27436186787317
C           -5.56751512217492        1.57603151754801       -1.35316091702221
C           -6.82367666812318        2.17474919963104       -1.34209132058531
C           -6.92637383596568        3.54872567856147       -1.40959127251918
C           -5.78914331641338        4.34508582931776       -1.49646151426493
C           -4.53052984198324        3.77575799968189       -1.51285956751214
C           -4.43196245152539        2.39813798699710       -1.43637511019906
S           -2.93821048938154        1.48723118674172       -1.40581994119254
C           -3.83822805874208       -0.00424772974243       -1.22705066544873
C           -3.33488036356794       -1.28627512121795       -1.09657274730363
H            1.33049878151243        2.83599502162468       -1.67828080213254
H            2.75487035403286        4.74667958299644       -2.30618980448163
H            5.13121426252176        4.43380075429364       -2.81449343523583
H            6.14067872389275        2.17666092730190       -2.78981923246788
H            6.60176906080913       -0.51911380204071       -2.59011879700703
H            6.40812301274098       -2.97135571891234       -2.31059359577482
H            4.27340292627932       -3.98580077842915       -1.67080033728044
H            2.28970192837179       -2.60864438165806       -1.24344873847184
H           -0.13790829791060        3.55335739068282        0.72665330717519
H            0.26934057518345        5.97986316914204        0.80819973102007
H            2.53484316498436        6.87357724843482        1.05951957827264
H            4.47988812164525        5.35675641137867        1.23095795649528
H            6.16459336742604        3.18063329474527        1.27229358467582
H            7.14283782397678        0.91197891601569        1.29422745013369
H            7.76749381868095       -1.39968897275010        1.29426013922389
H            8.02789332179603       -3.84461148464872        1.45460870973379
H            6.05675804686030       -5.30144486702058        1.63993267987262
H            3.78195873756214       -4.32963069817463        1.66051826780981
H           -1.30491246448965       -2.88746528981952        1.62631980547219
H           -2.70527718537437       -4.82373259162290        2.22996895565692
H           -5.08099587787044       -4.54439001433966        2.75970883446475
H           -6.11384220023864       -2.29776390477941        2.78068690778314
H           -6.60388405690611        0.39447892610365        2.63070931591214
H           -6.43884996130266        2.85361851444437        2.39333067331574
H           -4.31827531100005        3.90244929578032        1.76163544611664
H           -2.32182412604492        2.55614758630727        1.30305008054956
H            0.05836981170969       -3.62050859571752       -0.80240680415885
H           -0.41687203061615       -6.03211733495943       -0.92899341253623
H           -2.70759201459686       -6.85759535897230       -1.18582756234653
H           -4.61011903802081       -5.28406071790285       -1.31957844120965
H           -6.23365079837110       -3.06202841039572       -1.31974944798154
H           -7.14800660138846       -0.76686652220571       -1.30545593595085
H           -7.70842352853443        1.56057513505978       -1.27366504227571
H           -7.90052130693319        4.01405715494680       -1.39490574449440
H           -5.88924016256355        5.41868007075960       -1.54924244900697
H           -3.64206670547259        4.38476308530366       -1.57854268966917
