112
 energy: -188.098862223165 gnorm: 0.000131846424 xtb: 6.7.1 (edcfbbe)
N            0.36267855289066       -1.90971361548065       -3.45716952444916
C            0.27981124717531       -1.37775644367627       -2.43312185358909
C            0.18404539084864       -0.77693127742784       -1.18742056110007
C            1.20644650164095        0.11447768050670       -0.72372114984309
N            2.38316932981930        0.25178969864627       -1.47291160378498
C            2.93982290063735        1.46573207799601       -1.82688047866720
C            2.33194777890907        2.70903708711586       -1.90621402529217
C            3.11385386718117        3.78206398583931       -2.29173282836953
C            4.45937360411836        3.61867132026941       -2.60559564532993
C            5.05245392752108        2.36811622025558       -2.58787137417236
C            4.28608391585143        1.27756670632275       -2.21025261310675
C            4.53596147316424       -0.13670704828719       -2.12023402041152
C            5.65654729515763       -0.92021995251198       -2.34269241275923
C            5.55575514584831       -2.28869200701809       -2.16274761969733
C            4.35356384548028       -2.87281740788432       -1.77911609818040
C            3.22599898602887       -2.10966600677647       -1.53693216647628
C            3.32568325652418       -0.73475943725655       -1.69711099433711
C            1.01218831302051        0.84488224643957        0.43014056273083
N            2.02101938052775        1.69826117200525        0.91293603632323
C            1.97547997229896        3.08021859218711        0.94628307513664
C            0.88471658561531        3.92478238036025        0.82016064138764
C            1.11760766368613        5.28580007621948        0.87615073042953
C            2.40287632899674        5.79523024902436        1.04191483647286
C            3.49477223552439        4.95633431154781        1.15750988029739
C            3.28544054995874        3.58540572864166        1.11238230572098
C            4.16150737945603        2.44905623906160        1.18034195377148
C            5.53966172271488        2.29549091437485        1.28213036513937
C            6.07996058351357        1.02528544233157        1.31021599681917
C            5.25485480405784       -0.10299373074605        1.31015778003027
C            5.62993447044173       -1.49007036140235        1.41245420094191
C            6.90046493304964       -2.05588327842244        1.44027093845921
C            7.03549076384544       -3.42658215442215        1.52976502709482
C            5.91706120331272       -4.25028832231882        1.60044103541030
C            4.64429595197241       -3.71243749826104        1.57862242678776
C            4.51301568611618       -2.33878644987698        1.48028988142385
S            2.99789332191297       -1.46465416513271        1.40123304261435
C            3.86091118030257        0.04265293311589        1.23408743202631
C            3.32247912619037        1.31244175119359        1.08871039162154
C           -0.18871176955610        0.71305274895673        1.19435978987971
C           -0.27534433976992        1.30823094383239        2.44335838779967
N           -0.34766347627561        1.83572765232377        3.47051107685640
C           -1.21249520599040       -0.17558557840890        0.72937424292461
N           -2.38799303280469       -0.31931858527993        1.47908519782857
C           -2.94682541134522       -1.53960078098983        1.80820858600893
C           -2.34106382934644       -2.78539293799857        1.86114205653976
C           -3.12409077232243       -3.86508653763002        2.22513682396042
C           -4.46927961710720       -3.70635650130095        2.54269553008608
C           -5.06053735688095       -2.45485655539965        2.55069502626335
C           -4.29262675918143       -1.35781112923647        2.19555956463238
C           -4.54043533672749        0.05829544687883        2.13502953074211
C           -5.66036440199634        0.83744079472689        2.37517884819310
C           -5.55867637787918        2.20940460629218        2.22552776187038
C           -4.35555706000653        2.80064542702548        1.85625422380178
C           -3.22836726859953        2.04215866365653        1.59804713212503
C           -3.32937749865067        0.66395645180763        1.72480070686925
C           -1.02299358800310       -0.89707344866388       -0.43173351688840
N           -2.05017967402405       -1.71729243697950       -0.93306996580525
C           -2.04935565626252       -3.09888059509808       -0.99663188843270
C           -0.98678475667638       -3.98154748879017       -0.89258758768447
C           -1.26437772340571       -5.33252753161164       -0.97884498555663
C           -2.56581576742931       -5.79581509643806       -1.15352537039578
C           -3.62948239093214       -4.91913237672083       -1.24968634626715
C           -3.37515618530213       -3.55721945748834       -1.17428831669183
C           -4.21380159691918       -2.39183822143156       -1.22018675358634
C           -5.58578758420695       -2.19035538010407       -1.32300773939085
C           -6.08346632142651       -0.90253028477985       -1.32841149731472
C           -5.22153374253167        0.19763234189935       -1.30348450053658
C           -5.54982364395335        1.59822297547784       -1.37975371339772
C           -6.80064406541277        2.20660483481657       -1.40165220876665
C           -6.88951528030362        3.58258086035430       -1.46405669153632
C           -5.74401457820115        4.36981696619610       -1.51334092132935
C           -4.48994570045450        3.78945978829459       -1.49678716820449
C           -4.40505389630695        2.41052125212149       -1.42556767800241
S           -2.92010569457160        1.48489952428580       -1.35625056815246
C           -3.83365929952188        0.00393631889645       -1.22472772671638
C           -3.33827617220203       -1.28578137186328       -1.10379484754606
H            1.28103105630700        2.83152530245474       -1.69311850584202
H            2.66929613699766        4.76386935871795       -2.35011838098393
H            5.04194785789714        4.48141483506346       -2.89144758035366
H            6.08616177590113        2.24068376274748       -2.87061568788685
H            6.58737937471660       -0.46779630843569       -2.64883252292194
H            6.41865831419508       -2.91587361301314       -2.32821722367901
H            4.29953913248557       -3.94446043299644       -1.66196133422682
H            2.29955370699467       -2.57546140258910       -1.24354908438871
H           -0.11198145235350        3.53473418347882        0.68264240558671
H            0.28576003329616        5.96847528508091        0.78831032205540
H            2.54459041290928        6.86492403057707        1.07962157533032
H            4.49034204005360        5.35396692466762        1.28160192134273
H            6.17811682397898        3.16355422297997        1.33173873190115
H            7.14906047223334        0.89236992107639        1.36563291638267
H            7.77151900516111       -1.42110256029559        1.38604604697078
H            8.02116894751279       -3.86680317249060        1.54589058299913
H            6.04296347447428       -5.31998639385925        1.67140718502711
H            3.77015833216789       -4.34257039488943        1.63244740517992
H           -1.29051601694885       -2.90508588820747        1.64451553832330
H           -2.68096405156226       -4.84853721834365        2.26277240889236
H           -5.05301900655060       -4.57405211428133        2.81058170633741
H           -6.09409850547418       -2.33180995827878        2.83589315362981
H           -6.59122280931894        0.37877668249385        2.67183896627185
H           -6.42094750899502        2.83359894100711        2.40501667959666
H           -4.29988508502925        3.87464036514866        1.76395478717425
H           -2.30089928016727        2.51505695859195        1.32016611372747
H            0.02281675945541       -3.62801517875876       -0.75146766566519
H           -0.45512289592828       -6.04376439675669       -0.90870609662174
H           -2.74262377416332       -6.85915801546004       -1.21501292524042
H           -4.63755933065849       -5.28080756632925       -1.38258263342874
H           -6.25265231312575       -3.03547818051006       -1.39150907318644
H           -7.14734262023817       -0.73308189666189       -1.38478981024030
H           -7.69259743481786        1.60031831553729       -1.36375748604678
H           -7.85989518230284        4.05570898726391       -1.47532941317350
H           -5.83389381736463        5.44434252324714       -1.56314360983964
H           -3.59505463910667        4.39110327975954       -1.53380737724372
