  112
       -188.16875841
 N          0.3920825047       -1.9106466329       -3.4242697359
 C          0.3171924767       -1.4043293233       -2.3992826818
 C          0.1894012940       -0.7457332594       -1.1527699995
 C          1.2091828012        0.1143812000       -0.7183137091
 N          2.3859668363        0.2360642356       -1.4547392288
 C          2.9731896367        1.4487786574       -1.7873667571
 C          2.3870698073        2.7003906663       -1.8714225413
 C          3.1902418136        3.7602275687       -2.2494763523
 C          4.5345824302        3.5743337697       -2.5557398220
 C          5.1034792859        2.3151900449       -2.5372320173
 C          4.3145475070        1.2368006761       -2.1648705415
 C          4.5403602048       -0.1812393539       -2.0873284456
 C          5.6539455512       -0.9770907006       -2.3162549616
 C          5.5374223730       -2.3428990749       -2.1523529140
 C          4.3276639766       -2.9146239063       -1.7722357104
 C          3.2089512923       -2.1399282513       -1.5289490881
 C          3.3230049733       -0.7681720768       -1.6808110429
 C          1.0021677883        0.8630413481        0.4558275647
 N          1.9997598547        1.7098712097        0.9472500354
 C          1.9612391300        3.0969409679        0.9758005648
 C          0.8750750350        3.9479676870        0.8647365433
 C          1.1180653620        5.3079775150        0.9023526184
 C          2.4097606824        5.8101689034        1.0355046457
 C          3.4969857280        4.9646186764        1.1288224367
 C          3.2778044361        3.5941077397        1.0992213379
 C          4.1537254833        2.4563476091        1.1472359178
 C          5.5373694745        2.3028594982        1.2195996109
 C          6.0747060238        1.0356022093        1.2421385390
 C          5.2469963526       -0.0926468435        1.2745958085
 C          5.6202336352       -1.4790548780        1.3796356940
 C          6.8900209386       -2.0483288355        1.3703568553
 C          7.0256980178       -3.4176334531        1.4675603387
 C          5.9083069014       -4.2381512570        1.5825834859
 C          4.6368383944       -3.6982070054        1.5972812393
 C          4.5049957911       -2.3253653031        1.4907770542
 S          2.9899782664       -1.4507442122        1.4540529735
 C          3.8531963604        0.0568681716        1.2354461675
 C          3.3185673286        1.3235179502        1.0817348485
 C         -0.1993486460        0.7269458291        1.1633096132
 C         -0.3235119243        1.3891386308        2.4081790823
 N         -0.3951509905        1.8999217088        3.4310346774
 C         -1.2162227881       -0.1380024719        0.7327151909
 N         -2.3860241433       -0.2849054278        1.4760833174
 C         -2.9511509973       -1.5164706483        1.7795142411
 C         -2.3395316276       -2.7572310188        1.8394825043
 C         -3.1218046684       -3.8415971533        2.1909014445
 C         -4.4714038305       -3.6903558338        2.4930018748
 C         -5.0666481509       -2.4433198218        2.4974273373
 C         -4.2984810483       -1.3408432844        2.1529258183
 C         -4.5527896858        0.0736384676        2.1041664436
 C         -5.6841746151        0.8401680700        2.3444310031
 C         -5.5950869709        2.2117302375        2.2144672593
 C         -4.3946243186        2.8172402903        1.8584323739
 C         -3.2582555212        2.0720252139        1.6039086389
 C         -3.3453222274        0.6947563144        1.7186583529
 C         -1.0144067617       -0.8760139786       -0.4500299310
 N         -2.0247794878       -1.6987187310       -0.9554731105
 C         -2.0156867874       -3.0849855258       -1.0153532210
 C         -0.9489186137       -3.9619914452       -0.9200948916
 C         -1.2212259421       -5.3150677916       -0.9896298575
 C         -2.5228851716       -5.7857870238       -1.1390730810
 C         -3.5907670985       -4.9146907826       -1.2193858282
 C         -3.3418532565       -3.5503405469       -1.1586183524
 C         -4.1923710583       -2.3929083082       -1.1901694621
 C         -5.5711489552       -2.2073754804       -1.2786999376
 C         -6.0803626246       -0.9283467024       -1.2840725704
 C         -5.2280706408        0.1818512313       -1.2801429682
 C         -5.5701110038        1.5779207680       -1.3606737540
 C         -6.8275227556        2.1741054218       -1.3581915715
 C         -6.9325153382        3.5479208511       -1.4259248425
 C         -5.7962745921        4.3465706686       -1.5046046927
 C         -4.5364218772        3.7797505003       -1.5124035483
 C         -4.4356325226        2.4022999730       -1.4356840589
 S         -2.9403116054        1.4943504035       -1.3953934920
 C         -3.8385388065        0.0009132246       -1.2239035202
 C         -3.3335301167       -1.2803419474       -1.0923534530
 H          1.3370101761        2.8447711576       -1.6651521277
 H          2.7621357002        4.7493443434       -2.3089485399
 H          5.1328253520        4.4275555828       -2.8376854443
 H          6.1350689885        2.1671811156       -2.8171358438
 H          6.5896373956       -0.5298745750       -2.6146763903
 H          6.3918382437       -2.9801949928       -2.3222950920
 H          4.2606734437       -3.9858284659       -1.6570487932
 H          2.2840792834       -2.6016463472       -1.2207136864
 H         -0.1294060102        3.5694845182        0.7476341872
 H          0.2882340037        5.9943408870        0.8255854149
 H          2.5588710507        6.8791458321        1.0617018784
 H          4.4989516681        5.3545097297        1.2206805222
 H          6.1755461055        3.1718580934        1.2495805588
 H          7.1444753564        0.8992280428        1.2707558876
 H          7.7593956536       -1.4152653073        1.2803233561
 H          8.0103566133       -3.8602658089        1.4542671833
 H          6.0341974185       -5.3075730745        1.6594114456
 H          3.7636074129       -4.3260955602        1.6850761007
 H         -1.2855769901       -2.8746671819        1.6355364871
 H         -2.6733952341       -4.8225516920        2.2320604668
 H         -5.0531770931       -4.5618589581        2.7526642154
 H         -6.1033036246       -2.3233427980        2.7721613718
 H         -6.6122545423        0.3662161091        2.6250234370
 H         -6.4639098792        2.8269075665        2.3930751717
 H         -4.3483608871        3.8922580776        1.7723831619
 H         -2.3402082331        2.5609413169        1.3186078570
 H          0.0632914657       -3.6087822341       -0.7922785854
 H         -0.4067114312       -6.0208161771       -0.9257373719
 H         -2.6951490012       -6.8503987035       -1.1895573519
 H         -4.6004006799       -5.2803113409       -1.3257012375
 H         -6.2275659701       -3.0612752667       -1.3362734664
 H         -7.1462785028       -0.7679243787       -1.3270071131
 H         -7.7114559495        1.5580877192       -1.2963312849
 H         -7.9076506139        4.0112660446       -1.4183633702
 H         -5.8981477555        5.4199876404       -1.5577370120
 H         -3.6487134838        4.3905150865       -1.5715891205
