112
 energy: -188.166079765861 gnorm: 0.000189892147 xtb: 6.7.1 (edcfbbe)
N           -0.39506573189691        1.28312598366377       -4.18580969992847
C           -0.23249882093359        1.00147975880425       -3.08741715279155
C           -0.02941893366206        0.63987099232359       -1.73407951382948
C            1.10305994667492        1.11258622117182       -1.05478949462524
N            1.99999803955499        1.97207368564195       -1.68660659550073
C            1.70827952748789        3.27600464247026       -2.06742119877283
C            0.48139968774223        3.91327615052728       -2.14869977282620
C            0.47466849108183        5.24416284111474       -2.52347884818100
C            1.65594082975219        5.92686579093976       -2.79843713070971
C            2.88159547992505        5.29867878841571       -2.69630880705877
C            2.91423864858548        3.96205635992157       -2.32470494160300
C            3.98217749402306        3.02706429881576       -2.09333103964077
C            5.36488022324783        3.10751927567115       -2.17608283670091
C            6.11112115093258        1.98009809591094       -1.89154780243200
C            5.49741888206379        0.77302948081048       -1.56969252301505
C            4.12187082653091        0.66749347343555       -1.48923851412045
C            3.37618983271700        1.81368475466310       -1.70803979799330
C            1.30692198512126        0.71880140340144        0.27508084522916
N            2.45679647581014        1.10280479909080        0.96659973671217
C            2.89169209619636        2.39856143280536        1.17810433321089
C            2.22544782042351        3.59159461509078        0.95250801053071
C            2.89646168515880        4.76295631057751        1.24677357805569
C            4.18273480161288        4.74633567050566        1.77998467925060
C            4.82556577996299        3.55654963546567        2.05853020598570
C            4.17599383043365        2.36573581990136        1.76156397139695
C            4.52831327046157        0.98170229006718        1.91042173714969
C            5.66503453598399        0.33675353610684        2.39435295395253
C            5.72908615020561       -1.03652689596116        2.35426717711637
C            4.68082613580847       -1.78374566543435        1.80575091327329
C            4.61271088667169       -3.21085550220737        1.62223136468950
C            5.53416749091269       -4.18826802805213        1.98852432436325
C            5.27096090725203       -5.51378377948463        1.71028883921533
C            4.09543852179345       -5.88844952905495        1.06698573613793
C            3.16501382650473       -4.93875797415764        0.69100076460255
C            3.43415294005331       -3.61105901473655        0.97266358134292
S            2.39487232022184       -2.26030800074191        0.58077569976495
C            3.53247754748885       -1.14264987328772        1.31524310662091
C            3.44357162165991        0.23792588394052        1.39886763810850
C            0.35663348860045       -0.08940351976205        0.91602366769780
C            0.57125705895238       -0.44396979349730        2.26990432542502
N            0.76169953446599       -0.70996818863438        3.36802756746537
C           -0.77946136906042       -0.55642999832957        0.24080714754049
N           -1.69718112266680       -1.38190357556122        0.88971510302560
C           -2.15150128438309       -2.58423417734076        0.36930453423358
C           -1.54572797240179       -3.40184722185060       -0.56961424083164
C           -2.19263206614594       -4.57576787700018       -0.90767024053849
C           -3.39968806466595       -4.93178141903835       -0.31359789828365
C           -3.97318856251533       -4.14567626779282        0.66745257444116
C           -3.33838587792042       -2.96558020884393        1.02695630352141
C           -3.60005807608609       -1.95265155414873        2.01372544148756
C           -4.62021931554626       -1.76655118750410        2.93607181468722
C           -4.57316896673635       -0.66070619015569        3.76131812190418
C           -3.52093351748606        0.24596839397200        3.68177451096957
C           -2.49849221786833        0.08655463763949        2.76480919506245
C           -2.55110972480966       -1.01234429793688        1.92355022370884
C           -0.96227542700856       -0.19563566774881       -1.10679355806956
N           -2.08290678365437       -0.64429332303870       -1.81438589422178
C           -2.09461133266756       -1.62164561501594       -2.80025374972118
C           -1.04916460800544       -2.10441769118707       -3.56859174351178
C           -1.33170933892337       -3.10796345197865       -4.47603519690614
C           -2.61788455011764       -3.62417014942354       -4.61007065000849
C           -3.65985584020693       -3.15202293712693       -3.83749305232071
C           -3.40297222324022       -2.14046679382502       -2.92202313171536
C           -4.22171440362230       -1.44539774804325       -1.96769413574564
C           -5.56282934506875       -1.53114178660558       -1.59658508142305
C           -6.04681963936830       -0.69274712745629       -0.61772303510395
C           -5.22938238905220        0.29011774253260       -0.04752369358239
C           -5.57508310302581        1.29839621347707        0.91990177547316
C           -6.77451771758610        1.48558077649605        1.60022177623606
C           -6.89167732845711        2.51831244365207        2.50720995704676
C           -5.82694414366994        3.38101193356224        2.74636403542548
C           -4.62629050101686        3.21898642663280        2.08232929004663
C           -4.51089068185148        2.17738027715471        1.17959361451314
S           -3.07321056919337        1.78264794301156        0.26368030559833
C           -3.88702426284734        0.39949629808340       -0.43738678412315
C           -3.37074236314370       -0.51995384807188       -1.33207281824557
H           -0.44257613917975        3.40061732128348       -1.92439269503485
H           -0.46865761634505        5.76341816913507       -2.60083999255279
H            1.60871345677946        6.96556572006127       -3.08928039454348
H            3.79846061687556        5.83219478175527       -2.89483075725669
H            5.84293927767974        4.03241538428021       -2.45998905391280
H            7.18869934905028        2.02602260523823       -1.93885806685466
H            6.10452753104735       -0.10013472140293       -1.38283355837737
H            3.64742209269065       -0.27837949812863       -1.27521014697041
H            1.21871867924021        3.61227445784590        0.56304616495798
H            2.40980333559936        5.70830209035688        1.06047827166670
H            4.67592914801248        5.68282429009495        1.99247635408112
H            5.81107721266910        3.54680782545794        2.49794209609193
H            6.48593796759306        0.91596878506536        2.78687532256593
H            6.60018150584803       -1.55258021161492        2.72665233490700
H            6.44670634418592       -3.90408051996458        2.48984854654884
H            5.98457335977184       -6.27195518473148        1.99592423508863
H            3.90616585885501       -6.93079232378869        0.85995427761854
H            2.24844646648005       -5.21766842257829        0.19410680615128
H           -0.59488510204554       -3.14040984173154       -1.01017751746235
H           -1.75064823314358       -5.22697210423429       -1.64651880442741
H           -3.88061372293498       -5.85160276167176       -0.61063586825499
H           -4.88911884158958       -4.44421234745990        1.15389911247788
H           -5.43248807123087       -2.47436297415481        2.99912563686318
H           -5.35920535498811       -0.49369635519766        4.48219768300389
H           -3.50384858732263        1.09737645496897        4.34523207562689
H           -1.69491704111531        0.80481598339384        2.71018220352055
H           -0.04703747618229       -1.71497132731771       -3.46787238021054
H           -0.53677511529900       -3.49925118694986       -5.09290358826392
H           -2.79806149533378       -4.40788480209848       -5.33050577719276
H           -4.65486587754055       -3.55761127760363       -3.93679082525211
H           -6.20840724984442       -2.25301344313744       -2.07147791233065
H           -7.07616173253285       -0.76268655580374       -0.30257752029840
H           -7.60235576743888        0.81752943400489        1.41832488523028
H           -7.82029270654409        2.66068757423873        3.03933104704318
H           -5.93728839172618        4.18406993463699        3.45933032377147
H           -3.79353327594169        3.88120285011203        2.26270557397907
