  82
  -119.793783804100       0.474126622294032      !
 C         -8.0101541396       -2.4547699511        0.9045299173
 C         -7.6137581233       -1.3295293899       -0.0700996559
 C         -8.7817349575       -1.0142773412       -1.0239071691
 C         -7.2911156358       -0.0881737477        0.7345612028
 C         -8.2621421799        0.4709639921        1.5533827922
 C         -8.0116161521        1.5876039443        2.3297417213
 C         -6.7508759495        2.1630735819        2.3083979262
 C         -5.7684522329        1.6320427267        1.5038981364
 C         -6.0253948761        0.5161234804        0.6943809662
 N         -5.0264520373        0.0214890803       -0.1165435778
 C         -3.7664554672        0.6802947517       -0.1418565426
 C         -2.6685726743        0.1100463937        0.5060451848
 C         -1.4433102220        0.7311884417        0.4752382508
 C         -1.2675434691        1.9445869061       -0.2167584888
 C         -0.0105003003        2.6693242437       -0.2561795898
 O         -0.0122309247        3.9256008317       -0.4102848620
 C          1.2468851212        1.9561821710       -0.1260478878
 C          2.3912323922        2.6814793435        0.2691443246
 C          3.6178494586        2.0762161148        0.3629684143
 C          3.7567281739        0.7244942981        0.0393090077
 N          5.0281689863        0.0888565657        0.1218320398
 C          5.3151225711       -0.6917946536        1.2191294715
 C          4.3640541047       -0.8165852730        2.2418407277
 C          4.6140789007       -1.5969357159        3.3476144912
 C          5.8219382664       -2.2677572991        3.4595570644
 C          6.7692464383       -2.1351053959        2.4607822602
 C          6.5462670260       -1.3545182890        1.3352195734
 C          7.6251377809       -1.2316168232        0.2797610298
 C          7.9293548970       -2.6334246500       -0.2821031403
 C          8.8860944264       -0.6340068183        0.9321751108
 C          7.1977757652       -0.3360102303       -0.8641735847
 C          8.0677986142       -0.1069326108       -1.9208111215
 C          7.7200133186        0.6901348229       -2.9961482023
 C          6.4639834212        1.2752721170       -3.0335211194
 C          5.5796514680        1.0663183846       -1.9997723030
 C          5.9332331874        0.2708060857       -0.9006002997
 C          2.6457249450        0.0014811008       -0.3974918988
 C          1.4141200326        0.6054302363       -0.4845758319
 C         -2.4022487212        2.5356392648       -0.8121747117
 C         -3.6215996741        1.9095840874       -0.7906846006
 C         -5.2129806966       -1.0953425625       -0.9022292888
 C         -4.1736230851       -1.5353436314       -1.7345959532
 C         -4.3203117377       -2.6584731725       -2.5164365166
 C         -5.5121765348       -3.3655208203       -2.4919730857
 C         -6.5498864689       -2.9200340449       -1.6939988118
 C         -6.4317546798       -1.7903558606       -0.8964152885
 H         -8.8688929517       -2.1641378830        1.5027779045
 H         -8.2629758177       -3.3632463306        0.3654826839
 H         -7.1815683045       -2.6723329321        1.5759323211
 H         -9.0558730367       -1.8914871966       -1.6029428408
 H         -8.4934239616       -0.2234186321       -1.7139466415
 H         -9.6559812996       -0.6845974846       -0.4699163433
 H         -9.2444976001        0.0255087497        1.5929238580
 H         -8.7906218407        1.9983271672        2.9531082926
 H         -6.5320361507        3.0241930033        2.9210099059
 H         -4.7854630845        2.0737394298        1.4949966496
 H         -2.7994735639       -0.8189626628        1.0435529243
 H         -0.6190092239        0.3038250131        1.0241182369
 H          2.2662136943        3.7266134663        0.5054418108
 H          4.4862488151        2.6332218895        0.6842798358
 H          3.4284897505       -0.2880016718        2.1541598163
 H          3.8679971635       -1.6813993715        4.1229291489
 H          6.0275132979       -2.8844653979        4.3206747353
 H          7.7083045522       -2.6563250205        2.5684161982
 H          8.7131817449       -2.5878697315       -1.0328555087
 H          7.0355510068       -3.0497205836       -0.7433067424
 H          8.2526410941       -3.3051371964        0.5080421483
 H          8.6675408633        0.3594325683        1.3193183683
 H          9.2283401693       -1.2552041740        1.7548912914
 H          9.6930502172       -0.5510506093        0.2098854532
 H          9.0466222012       -0.5616759081       -1.9113709122
 H          8.4217712287        0.8489274700       -3.8001307828
 H          6.1729509751        1.8930328476       -3.8691918489
 H          4.6001772596        1.5151465882       -2.0301608129
 H          2.7701968283       -1.0342885270       -0.6814537287
 H          0.5780512229        0.0469632737       -0.8747403994
 H         -2.2739332150        3.4881687417       -1.3020930399
 H         -4.4795304139        2.3552117810       -1.2734562066
 H         -3.2511765343       -0.9784855293       -1.7615438203
 H         -3.5060714506       -2.9811355649       -3.1471414416
 H         -5.6365327218       -4.2502638601       -3.0967857049
 H         -7.4776365981       -3.4715819386       -1.6992817095
  82
  -119.793677549000       0.423704307068105      !
 C         -7.8101794666       -1.7719702296        2.0563506929
 C         -7.6027071011       -0.6984517308        0.9710741522
 C         -8.9439039468       -0.0236673423        0.6269088147
 C         -6.6532020649        0.3533132064        1.5055988530
 C         -6.9948330450        1.0807714904        2.6369169583
 C         -6.1631887473        2.0538880165        3.1606287690
 C         -4.9501220847        2.3193599723        2.5444906076
 C         -4.5826388954        1.6114287166        1.4229318425
 C         -5.4214208330        0.6222111388        0.8901673276
 N         -5.0219987257       -0.0669826745       -0.2322269701
 C         -3.7443951358        0.2160906640       -0.7957828039
 C         -3.6088970228        1.1670368333       -1.8095411063
 C         -2.3717090681        1.4358029315       -2.3361679068
 C         -1.2154803081        0.7838063907       -1.8560565382
 C          0.0580916078        1.0937945494       -2.4775974857
 O          0.0933201996        1.6014580985       -3.6362733296
 C          1.2983314341        0.8243614111       -1.7710609835
 C          2.4815491127        0.6825636270       -2.5266936339
 C          3.6877765325        0.4474774130       -1.9186432182
 C          3.7662413339        0.3733860709       -0.5258237570
 N          5.0125847158        0.1255005572        0.1154654726
 C          5.2786252451       -1.1394580105        0.5914241783
 C          4.3322966005       -2.1575233804        0.4070741019
 C          4.5613686515       -3.4294577963        0.8804503322
 C          5.7438370640       -3.7158355511        1.5445471837
 C          6.6883220175       -2.7197366632        1.7121559305
 C          6.4858881623       -1.4286516013        1.2450528997
 C          7.5651532436       -0.3836061162        1.4345239674
 C          8.8411303795       -0.8619271086        0.7162231702
 C          7.8343505308       -0.2149846886        2.9416874954
 C          7.1591402274        0.9586715687        0.8629262131
 C          8.0294675298        2.0359172602        0.9516636801
 C          7.7006644941        3.2857912631        0.4594174159
 C          6.4628004846        3.4813367866       -0.1328871170
 C          5.5791222035        2.4312821201       -0.2363062131
 C          5.9150331755        1.1580133758        0.2455051711
 C          2.6169785142        0.5711968033        0.2410148938
 C          1.4063011351        0.8005799726       -0.3678842241
 C         -1.3801405493       -0.2071458562       -0.8700737424
 C         -2.6213382502       -0.4791012759       -0.3461151814
 C         -5.8120703522       -1.0313037782       -0.8162436316
 C         -5.3567388023       -1.6868178080       -1.9689241564
 C         -6.1218175688       -2.6550773197       -2.5782310750
 C         -7.3574412525       -2.9927396851       -2.0481792015
 C         -7.8091608265       -2.3503252852       -0.9097397179
 C         -7.0618471747       -1.3683025279       -0.2749721190
 H         -8.2115253071       -1.3313387825        2.9645897524
 H         -8.4998152125       -2.5387860846        1.7150546139
 H         -6.8598954330       -2.2460114383        2.2950553297
 H         -8.7914864842        0.7318866294       -0.1414322571
 H         -9.3713800425        0.4577796041        1.5016719121
 H         -9.6597313252       -0.7512651576        0.2555551252
 H         -7.9359741358        0.8875911910        3.1289180403
 H         -6.4606203655        2.6013342161        4.0415025186
 H         -4.2914169261        3.0782663160        2.9382849188
 H         -3.6407809722        1.8148385965        0.9391329298
 H         -4.4871138514        1.6838827215       -2.1690220902
 H         -2.2477644743        2.1617254485       -3.1245579367
 H          2.4030031836        0.7479454168       -3.6005453094
 H          4.5855804584        0.3156013125       -2.5051657785
 H          3.4172788443       -1.9340119765       -0.1173096540
 H          3.8187706921       -4.1981463159        0.7300479708
 H          5.9321726121       -4.7083605678        1.9232381269
 H          7.6084440495       -2.9621708877        2.2214979224
 H          8.6447543712       -0.9800412133       -0.3477228479
 H          9.1734131058       -1.8175291297        1.1117328943
 H          9.6466474807       -0.1435031427        0.8388028908
 H          8.6153747043        0.5194785591        3.1157006163
 H          6.9292855201        0.1203251136        3.4444539347
 H          8.1462092972       -1.1553086641        3.3870588762
 H          8.9934826501        1.9028857024        1.4186186566
 H          8.4023440931        4.1010987251        0.5429587503
 H          6.1854700250        4.4525136797       -0.5130565437
 H          4.6137094818        2.5832452973       -0.6907389331
 H          2.6946039157        0.5566155989        1.3193274353
 H          0.5397295809        1.0067832249        0.2401020861
 H         -0.5322048248       -0.7917471015       -0.5503434748
 H         -2.7428966104       -1.2438795077        0.4084913331
 H         -4.3944821491       -1.4224082770       -2.3767941167
 H         -5.7548588750       -3.1465659526       -3.4661745379
 H         -7.9649493613       -3.7511013136       -2.5171221591
 H         -8.7723222975       -2.6274791577       -0.5090328341
  82
  -119.791466966200       4.084598407152667E-002 !
 C         -8.8887903083       -1.8755310033       -0.1408607927
 C         -7.7093826897       -0.9411488535       -0.4227725556
 C         -8.1706408901        0.1496235621       -1.4179301934
 C         -7.2344309435       -0.2217205246        0.8233352868
 C         -8.0741998564        0.0700914792        1.8862463266
 C         -7.6526355101        0.8422553848        2.9561618558
 C         -6.3658711335        1.3545528556        2.9714108463
 C         -5.5045487903        1.0710546742        1.9347132944
 C         -5.9205767865        0.2759683717        0.8605993794
 N         -5.0236399250       -0.0417876178       -0.1379678401
 C         -3.7621449179        0.6151806969       -0.1604540205
 C         -3.6507426703        1.8758714852       -0.7495531419
 C         -2.4390666560        2.5176508350       -0.7771704956
 C         -1.2820689581        1.9168992704       -0.2373891963
 C         -0.0365748535        2.6609376664       -0.2792116454
 O         -0.0587617478        3.9204383745       -0.4036930969
 C          1.2319645650        1.9637479011       -0.1711857710
 C          2.3644707862        2.6948123282        0.2458953945
 C          3.5958307662        2.0995889187        0.3465115874
 C          3.7498126019        0.7532166573        0.0100046502
 N          5.0217124414        0.1210220914        0.1234981628
 C          5.3561269864       -0.4907661976        1.3102421043
 C          4.4445109221       -0.4679447300        2.3752698561
 C          4.7467149378       -1.0690442038        3.5758878969
 C          5.9665118427       -1.7068763786        3.7399190166
 C          6.8689142856       -1.7313146095        2.6921577846
 C          6.5925768503       -1.1341286596        1.4703555181
 C          7.6168244644       -1.1893270145        0.3561859218
 C          7.8946267742       -2.6656539028        0.0148032339
 C          8.9084283924       -0.5025095149        0.8391759317
 C          7.1324085702       -0.4841470671       -0.8935624109
 C          7.9446767420       -0.4367977124       -2.0177602501
 C          7.5483122021        0.1974011824       -3.1811114184
 C          6.3052448251        0.8085690534       -3.2365475670
 C          5.4775085072        0.7779455709       -2.1374522679
 C          5.8748491859        0.1347835690       -0.9566531793
 C          2.6539029448        0.0282871721       -0.4591173317
 C          1.4182014695        0.6225850860       -0.5552080615
 C         -1.4265535895        0.6735549438        0.4073834067
 C         -2.6417688091        0.0332424137        0.4372160300
 C         -5.2606941962       -1.1013257785       -0.9874803081
 C         -4.2160830880       -1.6301189546       -1.7542366871
 C         -4.4216128751       -2.7312893823       -2.5559292666
 C         -5.6725985802       -3.3232815053       -2.6049145113
 C         -6.7205996730       -2.7763445821       -1.8829413535
 C         -6.5480548089       -1.6604235683       -1.0798906293
 H         -9.7233406962       -1.3222339182        0.2790801235
 H         -9.2472630636       -2.3277660117       -1.0607633991
 H         -8.5997702369       -2.6619734615        0.5527268120
 H         -7.3545144679        0.8343251808       -1.6382255782
 H         -8.9943900430        0.7192814707       -0.9934275477
 H         -8.4977300978       -0.3074068238       -2.3493726903
 H         -9.0872221922       -0.2971979577        1.8927955795
 H         -8.3324347423        1.0504318623        3.7678686290
 H         -6.0307739184        1.9686870509        3.7931523269
 H         -4.4966535259        1.4537400348        1.9467042810
 H         -4.5273587411        2.3360369211       -1.1826787876
 H         -2.3358081204        3.4935565402       -1.2252414821
 H          2.2271982582        3.7355170626        0.4953596902
 H          4.4548468366        2.6606032213        0.6852916340
 H          3.4977815613        0.0307734270        2.2432288248
 H          4.0318437134       -1.0400479505        4.3840389616
 H          6.2138746583       -2.1814221993        4.6767863815
 H          7.8140966527       -2.2318648684        2.8374156026
 H          8.2653714366       -3.2010225270        0.8841738339
 H          8.6339838556       -2.7478663335       -0.7765893549
 H          6.9779011467       -3.1472085884       -0.3201684092
 H          9.6773527023       -0.5418017234        0.0729643637
 H          8.7080165282        0.5416155865        1.0715284023
 H          9.2930207346       -0.9852231873        1.7330517055
 H          8.9164994222       -0.9057747459       -1.9914624553
 H          8.2054748213        0.2160008313       -4.0366375110
 H          5.9816232074        1.3089901906       -4.1362996263
 H          4.5102274271        1.2524782729       -2.1756920377
 H          2.7924004862       -1.0015657530       -0.7572741733
 H          0.5944759319        0.0646824112       -0.9715669971
 H         -0.5862346609        0.2351482709        0.9221401382
 H         -2.7485605263       -0.9174866473        0.9412884269
 H         -3.2431999230       -1.1681492822       -1.7097906817
 H         -3.6048909934       -3.1291018848       -3.1387138579
 H         -5.8408158298       -4.1946398863       -3.2186696898
 H         -7.6910499012       -3.2369372424       -1.9678467866
  82
  -119.791048142700       2.622233792673642E-002 !
 C         -7.7149864906       -2.7704222082        0.5853338402
 C         -7.4867383304       -1.4626875921       -0.1965081173
 C         -8.7586143422       -1.0792603295       -0.9763398561
 C         -7.1693635829       -0.3590962788        0.7911015621
 C         -8.0978389719       -0.0170185302        1.7640553114
 C         -7.8505602115        0.9748948726        2.6955504908
 C         -6.6397399797        1.6493207305        2.6697533219
 C         -5.6981633020        1.3302604341        1.7180141085
 C         -5.9486592252        0.3322075917        0.7657223604
 N         -4.9868071526        0.0401489141       -0.1751046832
 C         -3.7445032038        0.7356009533       -0.1402898296
 C         -3.6157320415        1.9983907427       -0.7225419608
 C         -2.4040574755        2.6410018559       -0.7057959719
 C         -1.2654079002        2.0357051058       -0.1334866186
 C         -0.0103125468        2.7673231836       -0.1515152883
 O         -0.0175567696        4.0283458608       -0.2566918425
 C          1.2457134656        2.0482076350       -0.0527515847
 C          2.3957494313        2.7593723786        0.3533908416
 C          3.6176078006        2.1438462822        0.4392058381
 C          3.7461752565        0.7931971402        0.1031175823
 N          4.9982274089        0.1218625611        0.1844934291
 C          5.4594057411       -0.3190321025        1.4063507909
 C          4.7992148937        0.0603082237        2.5804017635
 C          5.2914439075       -0.3124439786        3.8118860409
 C          6.4511400177       -1.0654224098        3.8909784086
 C          7.0851640468       -1.4778257429        2.7302622254
 C          6.6036103189       -1.1340013898        1.4777391635
 C          7.1676236409       -1.7091276230        0.1938965061
 C          6.3196851258       -2.9600877489       -0.1373371111
 C          8.6299729667       -2.1368915038        0.3360461956
 C          6.9586890846       -0.7282833533       -0.9419847692
 C          7.7857756878       -0.6736590730       -2.0520380353
 C          7.4908911503        0.1339601198       -3.1383078764
 C          6.3359940927        0.8986897990       -3.1358491277
 C          5.5028174214        0.8771433735       -2.0390991774
 C          5.8098821962        0.0818058476       -0.9295904851
 C          2.6330147670        0.0899550372       -0.3560282552
 C          1.4062242041        0.7044514051       -0.4387464995
 C         -1.4308850177        0.7930389329        0.5062264856
 C         -2.6465640764        0.1523071845        0.4935093064
 C         -5.1760430558       -0.9279039682       -1.1359583140
 C         -4.1720584506       -1.1573554353       -2.0875658990
 C         -4.3254700493       -2.1214089750       -3.0576397989
 C         -5.4867557007       -2.8770202531       -3.1014514684
 C         -6.4845435667       -2.6461688335       -2.1721650929
 C         -6.3593559430       -1.6799226561       -1.1838545718
 H         -8.5280510703       -2.6591338125        1.2969723160
 H         -7.9605147025       -3.5862035032       -0.0888023488
 H         -6.8129197948       -3.0370391114        1.1331198511
 H         -8.5914332087       -0.1547772957       -1.5258501322
 H         -9.5965510147       -0.9308363077       -0.3014497475
 H         -9.0273147348       -1.8564486869       -1.6859982217
 H         -9.0430035933       -0.5368567961        1.8028671783
 H         -8.5953365516        1.2161393148        3.4379680919
 H         -6.4284793752        2.4216743516        3.3933029533
 H         -4.7526531932        1.8477792232        1.6991161251
 H         -4.4773036555        2.4558980872       -1.1871645428
 H         -2.2856799905        3.6176748909       -1.1483263454
 H          2.2790272851        3.8029587522        0.6011726667
 H          4.4909882738        2.6919655562        0.7630943730
 H          3.9027936812        0.6554210403        2.5127744146
 H          4.7739889747       -0.0091588146        4.7091422936
 H          6.8529339340       -1.3493015414        4.8513084627
 H          7.9673442276       -2.0898267951        2.8220626749
 H          6.3993342931       -3.6888630108        0.6658900809
 H          6.6672822685       -3.4126781632       -1.0631277979
 H          5.2728073019       -2.6910536191       -0.2563183070
 H          9.2612084676       -1.2822693796        0.5687955535
 H          8.7357835661       -2.8805839270        1.1203839748
 H          8.9826339830       -2.5988333851       -0.5813754625
 H          8.6792181740       -1.2747882837       -2.0918771417
 H          8.1556049344        0.1530279156       -3.9880687291
 H          6.0879331322        1.5178247604       -3.9842710969
 H          4.6105242952        1.4822888068       -2.0223385461
 H          2.7490070314       -0.9414388795       -0.6593641909
 H          0.5697358892        0.1593382324       -0.8459703175
 H         -0.6074500369        0.3542235722        1.0469629103
 H         -2.7684964708       -0.8033278333        0.9843464786
 H         -3.2729601563       -0.5634847675       -2.0542023854
 H         -3.5408879687       -2.2820825371       -3.7811613938
 H         -5.6168010310       -3.6369563531       -3.8562373212
 H         -7.3847043303       -3.2395769348       -2.2243196005
  82
  -119.790961213900       2.391782585020789E-002 !
 C         -7.8308601900       -2.6921159051        0.6067795573
 C         -7.5613721365       -1.4060911070       -0.1977673319
 C         -8.8186967946       -1.0000800102       -0.9894751211
 C         -7.2144818313       -0.2959652097        0.7722367083
 C         -8.1387280534        0.0946537454        1.7309283264
 C         -7.8643218598        1.0915765599        2.6493343644
 C         -6.6285889939        1.7192265301        2.6264794729
 C         -5.6907809883        1.3516238134        1.6886069250
 C         -5.9698283287        0.3512096176        0.7466657355
 N         -5.0124822110        0.0130236144       -0.1838459494
 C         -3.7560926336        0.6827559065       -0.1599932923
 C         -3.6126792891        1.9458225446       -0.7387319364
 C         -2.3955605152        2.5768819297       -0.7148279866
 C         -1.2648579980        1.9610234479       -0.1375664199
 C         -0.0111259920        2.6951447064       -0.1306973269
 O         -0.0243081835        3.9576410433       -0.2220095176
 C          1.2489098418        1.9852507610       -0.0231608900
 C          2.3870988463        2.7065420476        0.3988714501
 C          3.6170884407        2.1077378965        0.4824072122
 C          3.7662604123        0.7636523315        0.1288902191
 N          5.0313258757        0.1151670637        0.1971363398
 C          5.5021338250       -0.3376300795        1.4105904620
 C          4.8247840383       -0.0033470319        2.5888002579
 C          5.3187613030       -0.3902686750        3.8150742901
 C          6.4967388796       -1.1151374930        3.8848508826
 C          7.1496849494       -1.4814508458        2.7193376024
 C          6.6698455332       -1.1191300211        1.4710502945
 C          7.2692193469       -1.6436104857        0.1812093473
 C          6.4963433478       -2.9360407333       -0.1709758052
 C          8.7539412168       -1.9863395854        0.3267329720
 C          7.0132264989       -0.6627588387       -0.9455164702
 C          7.8275012548       -0.5773937464       -2.0634636629
 C          7.5008506792        0.2283445763       -3.1417665208
 C          6.3255372946        0.9610617121       -3.1235025133
 C          5.5022894137        0.9062334917       -2.0206353100
 C          5.8399534561        0.1108061756       -0.9196560628
 C          2.6638755778        0.0487841751       -0.3381491446
 C          1.4283841369        0.6466014410       -0.4181176034
 C         -1.4416826896        0.7127508335        0.4877067485
 C         -2.6637062819        0.0834316561        0.4683430587
 C         -5.2307242887       -0.9590653117       -1.1343593543
 C         -4.2333892255       -1.2299554214       -2.0819477516
 C         -4.4154281220       -2.1998078891       -3.0413769215
 C         -5.5989130762       -2.9205475985       -3.0775284972
 C         -6.5905082892       -2.6479549881       -2.1528607858
 C         -6.4373359732       -1.6735928924       -1.1765796474
 H         -8.6450973764       -2.5445116970        1.3105607408
 H         -8.0945093086       -3.5133667921       -0.0536499391
 H         -6.9401943553       -2.9728012933        1.1659135353
 H         -8.6217050185       -0.0927413863       -1.5573452157
 H         -9.6538364040       -0.8121198006       -0.3209492829
 H         -9.1094985130       -1.7830937860       -1.6837959749
 H         -9.1022630138       -0.3903099958        1.7689008956
 H         -8.6071517206        1.3724280661        3.3796894526
 H         -6.3952433264        2.4938576423        3.3407258037
 H         -4.7266405484        1.8333619019        1.6728675373
 H         -4.4686818976        2.4136633241       -1.2035619572
 H         -2.2670089897        3.5550103121       -1.1514164449
 H          2.2545225474        3.7454966694        0.6579075933
 H          4.4814617669        2.6642505599        0.8160129486
 H          3.9125673520        0.5679061861        2.5280583517
 H          4.7873790513       -0.1219395836        4.7151860812
 H          6.8987923513       -1.4125747386        4.8408991584
 H          8.0468715663       -2.0721678659        2.8038344418
 H          6.6224658452       -3.6743651740        0.6177255315
 H          6.8656653064       -3.3497513748       -1.1068927767
 H          5.4345443068       -2.7272666740       -0.2814030586
 H          9.3307164377       -1.0987061950        0.5761235887
 H          8.9005660719       -2.7335028005        1.1010209595
 H          9.1402623757       -2.4128288196       -0.5939694867
 H          8.7373641075       -1.1523084974       -2.1159549414
 H          8.1576003215        0.2717319996       -3.9967949862
 H          6.0531216468        1.5798541890       -3.9645614803
 H          4.5928383076        1.4847119511       -1.9928718106
 H          2.7955512184       -0.9777253218       -0.6512806570
 H          0.6006522090        0.0933082380       -0.8322455786
 H         -0.6235217061        0.2617223657        1.0265148255
 H         -2.7950557404       -0.8744920531        0.9523176374
 H         -3.3167927252       -0.6630167166       -2.0540981436
 H         -3.6356611815       -2.3926767497       -3.7622319638
 H         -5.7512445363       -3.6852057665       -3.8233138130
 H         -7.5084931583       -3.2138144235       -2.1994354992
  82
  -119.790242786500       1.118292278939213E-002 !
 C         -6.3832738088       -2.0786848868        2.1777526497
 C         -7.2018688983       -1.2053000235        1.1984997810
 C         -8.6920006483       -1.4401268232        1.4609531878
 C         -6.7927274522        0.2320289002        1.4549794638
 C         -7.4351180614        1.0335232449        2.3850584294
 C         -6.9557576767        2.2891494447        2.7201387529
 C         -5.7878162109        2.7562859440        2.1408427055
 C         -5.1332570861        1.9872382239        1.2041520298
 C         -5.6385616195        0.7368850371        0.8291936908
 N         -5.0104921901        0.0101749401       -0.1590781104
 C         -3.7518658738        0.4360015594       -0.6665259385
 C         -3.6461041282        1.5089015023       -1.5563330840
 C         -2.4186629487        1.8824555840       -2.0387272866
 C         -1.2410602611        1.2105094972       -1.6436455066
 C          0.0168930491        1.6152184333       -2.2388437350
 O          0.0346965940        2.2804386313       -3.3149530531
 C          1.2704959730        1.2419355343       -1.6035265863
 C          2.4263084742        1.1395791913       -2.4051202423
 C          3.6322487233        0.7733955836       -1.8647192244
 C          3.7402600676        0.5314996450       -0.4926693728
 N          4.9783255286        0.1217452693        0.0743703859
 C          5.1283394928       -1.1915721076        0.4653801123
 C          4.0780005545       -2.0977182882        0.2597897042
 C          4.1881432068       -3.4108353380        0.6569459654
 C          5.3534406618       -3.8529864983        1.2630784344
 C          6.4025029851       -2.9703202746        1.4428584707
 C          6.3214022307       -1.6415363185        1.0504122021
 C          7.5159729012       -0.7303558655        1.2379270338
 C          8.6972184363       -1.3045453947        0.4326458598
 C          7.8699561362       -0.6731327764        2.7359602857
 C          7.2346924429        0.6770455164        0.7552547857
 C          8.2221165487        1.6472723805        0.8533760803
 C          8.0090692106        2.9526785524        0.4498035078
 C          6.7703296924        3.3165128153       -0.0544982795
 C          5.7722791585        2.3753192539       -0.1656271762
 C          5.9918462210        1.0444970738        0.2177379870
 C          2.6238992641        0.7059117545        0.3274605451
 C          1.4124673306        1.0620771364       -0.2149383433
 C         -1.3731510370        0.1062715205       -0.7805059741
 C         -2.6048003051       -0.2692706181       -0.3009392759
 C         -5.6527529273       -1.0411154325       -0.7791534943
 C         -5.1783071359       -1.5088949685       -2.0102382717
 C         -5.8318518341       -2.5237204790       -2.6733425796
 C         -6.9729800566       -3.0824115664       -2.1216940599
 C         -7.4370769459       -2.6327644419       -0.8966273870
 C         -6.7953216713       -1.6201890424       -0.2012643889
 H         -6.6096686282       -1.8026187334        3.2052246943
 H         -6.6225411348       -3.1296918122        2.0318156341
 H         -5.3171458631       -1.9409703746        2.0110517886
 H         -9.2995705780       -0.8373534696        0.7897896473
 H         -8.9446691523       -1.1918052626        2.4873213509
 H         -8.9452744096       -2.4869587522        1.3232500516
 H         -8.3267650286        0.6826181337        2.8778877442
 H         -7.4833174565        2.8886765394        3.4457186137
 H         -5.3885075584        3.7206991504        2.4150888369
 H         -4.2251338421        2.3474066734        0.7487058474
 H         -4.5417594228        2.0305870976       -1.8626588066
 H         -2.3196898458        2.7004364041       -2.7353116891
 H          2.3251901200        1.3321095433       -3.4617332550
 H          4.5061952971        0.6614692304       -2.4902234283
 H          3.1761701152       -1.7561917069       -0.2215259590
 H          3.3659937470       -4.0902489064        0.4913836054
 H          5.4488709770       -4.8788006116        1.5834351273
 H          7.3097142320       -3.3344742794        1.9004038870
 H          8.4402995249       -1.3432868477       -0.6242973241
 H          8.9388286881       -2.3105341594        0.7637293933
 H          9.5823257227       -0.6856310966        0.5483622962
 H          8.7366239630       -0.0406047476        2.9051828243
 H          7.0322995862       -0.2661254764        3.2993427500
 H          8.0924900954       -1.6646353594        3.1197304247
 H          9.1874983254        1.3836183504        1.2577617931
 H          8.7998243997        3.6813667842        0.5377734238
 H          6.5809118760        4.3345514177       -0.3583680306
 H          4.8057359012        2.6597995471       -0.5484696629
 H          2.7277075498        0.5670483425        1.3946794536
 H          0.5721647981        1.2419427860        0.4369603561
 H         -0.5065352755       -0.4833106202       -0.5273807523
 H         -2.6991731006       -1.1256731988        0.3524161218
 H         -4.2984151428       -1.0582232019       -2.4404640332
 H         -5.4546905069       -2.8731895696       -3.6221774354
 H         -7.4968605650       -3.8731268624       -2.6360902230
 H         -8.3163461902       -3.0997399935       -0.4842798943
