  32
  -50.4544057500000        1.00000000000000      !
 C         -5.3644690847        0.5835519195        0.0161659837
 C         -4.6256684614        1.7830502244        0.0080797910
 C         -3.2520912954        1.7883534815       -0.0028936610
 C         -2.5733163916        0.5642565509       -0.0060446075
 C         -3.3425741109       -0.6497228105        0.0013777683
 C         -4.7275752518       -0.6424812011        0.0123680493
 N         -2.4660173907       -1.6936120872       -0.0018466851
 C         -1.1808904736       -1.2224028061       -0.0082665932
 C          0.0099426668       -1.9825674396       -0.0067577349
 C          1.1843336028       -1.2347961047       -0.0062726644
 N          2.4787563182       -1.7026152765        0.0017369579
 C          3.3483069518       -0.6556356190        0.0040440376
 C          4.7294481946       -0.6373958774        0.0146820594
 C          5.3594818901        0.5965677244        0.0152620393
 C          4.6104877602        1.7957440609        0.0043004969
 C          3.2432961668        1.7970983928       -0.0061498035
 C          2.5636945407        0.5596497163       -0.0057922575
 C          1.2114330576        0.1791781604       -0.0112416212
 C         -0.0045778681        0.9307074430       -0.0167293715
 C         -1.2033732584        0.1853892883       -0.0119172187
 H         -6.4423561393        0.6291369790        0.0253816404
 H         -5.1647831087        2.7192981581        0.0128620919
 H         -2.6991043608        2.7151280462       -0.0065691356
 H         -5.2897867573       -1.5651252954        0.0157136844
 H         -2.7231167620       -2.6680272924        0.0012394560
 H          0.0033535074       -3.0606913475       -0.0026380921
 H          2.7393572302       -2.6754433561        0.0086577477
 H          5.3000571510       -1.5547383306        0.0234651752
 H          6.4367829868        0.6496499091        0.0244151697
 H          5.1482968921        2.7329824883        0.0041669142
 H          2.6825720451        2.7188520116       -0.0148542873
 H         -0.0001447357        2.0052355808       -0.0213771764
