90
 energy: -145.109833747782 gnorm: 0.000072832661 xtb: 6.7.1 (edcfbbe)
N          -10.94229676055370       -1.92345578568303        0.48380212066978
C           -9.94172036022104       -1.37508708561376        0.34378631833264
C           -8.72669431196766       -0.70021369538520        0.17168779193357
N           -7.57877600650507       -1.32762247731699        0.33525067446608
C           -6.44388850424029       -0.72562170496158        0.17998515453204
C           -6.44289078618120        0.73165579929526       -0.19638885126663
N           -7.57696427393354        1.33481259226498       -0.35308180365989
C           -8.72573954101689        0.70859353493764       -0.19090463045881
C           -9.93987108765202        1.38475238467257       -0.36425061335992
N          -10.93974358255780        1.93414694638178       -0.50526145121671
C           -5.08869135651321        1.14198304597466       -0.29604384651408
C           -4.44952289747604        2.34141793533596       -0.59497481472962
C           -3.06415943331318        2.37359588060755       -0.51895293648077
C           -2.27792537299356        1.26824116305765       -0.19213166434618
C           -0.85288595431835        1.47782476609863        0.07767910966321
C           -0.02610397199449        2.15973385573493       -0.81325153929307
C            1.30053596613939        2.38653656981907       -0.51853914683881
C            1.84292501379221        1.96588824165293        0.70000637719337
N            3.18704521709025        2.19614908559968        0.99240773631480
C            3.92045497211149        1.32427733930482        1.80396971023321
C            4.92738264200447        1.82390368542410        2.63199904406398
C            5.67169525594545        0.96744811453786        3.41882432635477
C            5.42462516490115       -0.39590774314979        3.40206866289486
C            4.41995227798633       -0.89626104787719        2.59035109843761
C            3.67426377950475       -0.04865354705493        1.79507256282512
C            3.83799800111466        3.30998581276223        0.43846572298483
C            5.12546151545442        3.18204058412578       -0.08190434447809
C            5.76330529887533        4.27797330198431       -0.62984500589493
C            5.13047172990166        5.51005009976776       -0.66977562196972
C            3.85158267375919        5.64126676864055       -0.15271349959156
C            3.20637439934123        4.55227086837591        0.40070828874743
C            1.00756709187350        1.31258646581940        1.61012059177120
C           -0.30926383829220        1.06489575495212        1.29609469676427
C           -2.89886112786089        0.00140145544702       -0.00488616653871
C           -2.27941240732159       -1.26595232488228        0.18377726240663
C           -0.85387273644596       -1.47673355578950       -0.08247602944021
C           -0.30667863022741       -1.06421009849685       -1.29941381705097
C            1.01077468481409       -1.31307604797033       -1.60997619440999
C            1.84309980684702       -1.96719619594369       -0.69770538157298
N            3.18781174048612       -2.19873184659252       -0.98657036209285
C            3.83627196902236       -3.31316460016535       -0.43083568740983
C            3.20340233301974       -4.55485179682107       -0.39468995051844
C            3.84612326386394       -5.64440498490376        0.16054166017801
C            5.12375204886131       -5.51433594256589        0.68099437953994
C            5.75782993761881       -4.28285073131481        0.64265480327119
C            5.12245166025219       -3.18636102896372        0.09295101200480
C            3.92421166112732       -1.32757155715344       -1.79623996419245
C            3.67940407370754        0.04559690855786       -1.78796209576510
C            4.42804616264277        0.89243644338289       -2.58129661081702
C            5.43431631178835        0.39104677044293       -3.39038959876314
C            5.68001845896094       -0.97256112232630       -3.40651323827115
C            4.93275931747252       -1.82824967987302       -2.62163541140404
C            1.29715567276603       -2.38740059875389        0.51938269876121
C           -0.03005867226191       -2.15941153733913        0.81060379113635
C           -3.06729083775326       -2.37064572763463        0.50886850384633
C           -4.45277447967518       -2.33726011120127        0.58204381020659
C           -5.09026130328012       -1.13724118527034        0.28187766488464
C           -4.29793118999568        0.00200696617660       -0.00635985133547
H           -5.01227893029128        3.22744336962426       -0.84282369778871
H           -2.56174196879638        3.31806533130213       -0.67642215664815
H           -0.42276525263593        2.48739880919968       -1.76295627695758
H            1.93040918204660        2.88920516211700       -1.23781270837086
H            5.11629209580841        2.88696703032032        2.65809765167116
H            6.44521941916867        1.36920507079436        4.05620492251080
H            6.00727521834232       -1.06228621556022        4.01930662718730
H            4.22163252337432       -1.95792301944882        2.56807553432749
H            2.89609636558875       -0.44638277108914        1.16377016345838
H            5.61326854977956        2.21848788988507       -0.06072105195349
H            6.75775819518920        4.16644087475323       -1.03552837325954
H            5.63131067932855        6.36346684457628       -1.10040665711018
H            3.35551297440767        6.60005499964350       -0.17348402685085
H            2.21324671295710        4.65535076798238        0.81271094110792
H            1.39726815876372        1.01519814433283        2.57216221823861
H           -0.94454462629986        0.57209825951880        2.01695987937666
H           -0.93959676971462       -0.57078759166515       -2.02192601990776
H            1.40328505507846       -1.01594920108345       -2.57095632317293
H            2.21127656350605       -4.65705047010543       -0.80931635175918
H            3.34910790852027       -6.60272766261524        0.18006070052902
H            5.62264870105570       -6.36818246125752        1.11302104608505
H            6.75129748110193       -4.17220268514439        1.05098260319410
H            5.61120529507326       -2.22326277823815        0.07300821746461
H            2.89999943866818        0.44412937564628       -1.15869699915002
H            4.23077512035075        1.95430283981837       -2.55952708035045
H            6.01927092067241        1.05682117418558       -4.00609480550129
H            6.45477832274145       -1.37512547830934       -4.04187816581062
H            5.12064353510542       -2.89150680304371       -2.64723427230317
H            1.92465880232449       -2.89068376767176        1.24029390002089
H           -0.42951612652787       -2.48675654220159        1.75924425029565
H           -2.56601544301726       -3.31554356418582        0.66740116457996
H           -5.01682823548857       -3.22277448075815        0.82876482511937
