90
 energy: -145.149038359195 gnorm: 0.000118052989 xtb: 6.7.1 (edcfbbe)
N          -11.81168659074007       -2.21821791691344       -0.67526580805776
C          -10.80671073066084       -1.68560036119705       -0.53663106800457
C           -9.58009857411590       -0.99920584565102       -0.35938122908419
N           -8.44493537640149       -1.69940778716580       -0.46282960477502
C           -7.33674056402959       -1.01325351901211       -0.29000820556304
C           -7.34450634869801        0.39782026750221       -0.01065043425873
N           -8.46042251781321        1.08548067984133        0.09289533929964
C           -9.58782204630153        0.38686828664051       -0.08155210246680
C          -10.82209576961011        1.07516318618260        0.01841409456849
N          -11.83272154074274        1.60973559177311        0.09385821802744
C           -5.97505318380676        0.83721075307951        0.11794989568242
C           -5.36791267539520        2.04254253664235        0.37612710824752
C           -3.97313019159075        2.07175798843336        0.39391537108609
C           -3.15888678185657        0.96389612732691        0.17825735639854
C           -1.71635550090714        1.25122240378136        0.17036408860958
C           -0.88521361032660        0.95024883266188       -0.90708323371644
C            0.41274197728723        1.41760316367455       -0.95500125730275
C            0.92238750899663        2.21124123862265        0.07578127877656
N            2.17142613718760        2.81319619294199       -0.00869580768364
C            2.37226416930522        4.08891439477109        0.54364369384664
C            1.38092687961611        5.06632620269164        0.47103041793048
C            1.59941112371733        6.31882018370354        1.01117694310406
C            2.80638679573342        6.61962027011490        1.62090692104618
C            3.79753104586190        5.65433778179180        1.68773160277346
C            3.58554085821447        4.39653973306138        1.15728117102038
C            3.24051006831819        2.23138609172062       -0.70866557291079
C            3.58095243870905        0.89506761146430       -0.51633660510772
C            4.68602867092699        0.36898086250667       -1.15994457388102
C            5.44537096444857        1.15171262201732       -2.01257508380529
C            5.09794218629244        2.47639665835308       -2.21995278651645
C            4.00619683195635        3.01663227590646       -1.57010546042858
C            0.11723105008085        2.44341435202653        1.19467773342717
C           -1.17861859460522        1.98609918186351        1.22953376160589
C           -3.76400179513684       -0.31094350510753       -0.03860407951561
C           -3.15624917930584       -1.59033275335300       -0.21484137051137
C           -1.71323672389004       -1.83280754436857       -0.11440835595730
C           -1.07241388355537       -2.56255473898810       -1.11502163780106
C            0.27089506138367       -2.84945283530472       -1.03506708432652
C            1.02354066482545       -2.41010783942681        0.05568219689099
N            2.38685863731031       -2.68211137576435        0.13402878460304
C            2.97152501723025       -2.92855916984101        1.38830364182098
C            2.30374519627547       -3.70645803829064        2.33292413333126
C            2.87770042960278       -3.94842293654388        3.56591536249763
C            4.12408865423702       -3.42753313922264        3.87313095507677
C            4.79271611155134       -2.65681344799021        2.93657975110907
C            4.22306173817630       -2.40375362710026        1.70336655199325
C            3.16089022678398       -2.78366422636279       -1.02800341170181
C            4.22594681740849       -3.68163965857613       -1.09145831821700
C            4.99896998397338       -3.76630588959191       -2.23375920630843
C            4.71974102190051       -2.97084403310104       -3.33257743084631
C            3.65875726797358       -2.08174755348217       -3.27789932597149
C            2.88719589351089       -1.98156470315425       -2.13730417380431
C            0.37898418937088       -1.70035767653899        1.07210406488033
C           -0.96836186399417       -1.42448061450562        0.98957139033417
C           -3.95261966022672       -2.69905185483767       -0.47635287649416
C           -5.34584166893951       -2.66441700061905       -0.54652410023565
C           -5.96255345785205       -1.45521733310538       -0.33235151456174
C           -5.16727538129574       -0.30909917309308       -0.08291490173642
H           -5.94236644202171        2.94050703953044        0.54156170955239
H           -3.48799377771879        3.02413443149362        0.55456083616529
H           -1.27757727009112        0.38729833066552       -1.74109000315374
H            1.02945814287646        1.21277686917982       -1.81809010075574
H            0.44404418745249        4.83895948344345       -0.01627698232221
H            0.82485467158549        7.06861086497513        0.94598646399668
H            2.97396337219437        7.60041987128933        2.03883631284519
H            4.74089857067313        5.87954229891408        2.16266388997357
H            4.35720118660822        3.64277578740165        1.21391467549318
H            2.98774875542379        0.28685011161739        0.15144317844892
H            4.96860752624694       -0.65909091038571       -0.99523964819653
H            6.30489295157031        0.72929591716922       -2.51005230027145
H            5.68041702349973        3.09237330288935       -2.88883373260244
H            3.73803362375137        4.05242401109571       -1.71930919679536
H            0.51299798164939        3.01136384967703        2.02350742322392
H           -1.78984350155626        2.18891716484885        2.09732000758722
H           -1.63601860037675       -2.89570853513906       -1.97449501395431
H            0.74578398216274       -3.42608938460704       -1.81454200560784
H            1.33612680938863       -4.12113601075065        2.09034360194151
H            2.35196154167684       -4.55567879874095        4.28776219876645
H            4.57151259253740       -3.62192496661043        4.83585140565889
H            5.76267613068789       -2.24278259093045        3.16899904894869
H            4.74522513441885       -1.79624857361274        0.97985981741042
H            4.44180666007744       -4.31345679361498       -0.24241349195664
H            5.82076320090621       -4.46626647764811       -2.26710184269751
H            5.32377349027163       -3.04308939211545       -4.22394089237433
H            3.43724375010514       -1.45001157213846       -4.12522905034072
H            2.07547980587294       -1.27107885849630       -2.09341109919434
H            0.94327441698057       -1.36738575632270        1.93066011548174
H           -1.45446792430994       -0.89760266238359        1.79667748778941
H           -3.45914337165360       -3.65249222873296       -0.60021381859947
H           -5.91333202728639       -3.56052019484857       -0.74309620092944
