  141
       -204.80071301
 C        -14.8003045656       -3.0878405655        1.5144073960
 C        -13.9473168787       -2.4065060787        2.5941334610
 C        -13.5634144017       -3.4619252018        3.6346786990
 C        -14.7738178916       -1.3228260578        3.3014576816
 C        -12.7393255526       -1.7594233757        1.9321178212
 C        -11.4275005016       -2.1449404991        2.2210691823
 C        -10.3276588920       -1.5556968113        1.6242424071
 C        -10.5427953198       -0.5358189149        0.7118656967
 C        -11.8604045586       -0.1501906970        0.3787989527
 C        -12.9435357353       -0.7585637464        0.9901941699
 C        -11.7440394235        0.8715260844       -0.6256825612
 C        -12.6797637854        1.6254750964       -1.3195856878
 C        -12.2553251591        2.5712151272       -2.2394626825
 C        -13.2237360070        3.4176775724       -3.0519728610
 C        -12.9988113344        3.1383991192       -4.5449189916
 C        -14.6882116855        3.1110103664       -2.7267226776
 C        -12.9719313120        4.9030380619       -2.7566476761
 C        -10.8781587907        2.7545446230       -2.4225018286
 C         -9.9264321571        2.0207684911       -1.7443336034
 C        -10.3632037698        1.0521353023       -0.8527633000
 N         -9.6454305187        0.1980428984       -0.0389357153
 C         -8.2529297755        0.0837852263        0.0013424275
 C         -7.5189634630       -0.0126251349       -1.1800359899
 C         -6.1461925977       -0.1193054751       -1.1394114714
 C         -5.4556266292       -0.1419747021        0.0763140369
 C         -4.0005415219       -0.2542216454        0.1132779335
 C         -3.2515894444        0.3648199123        1.1209893373
 C         -1.8809343216        0.2685351246        1.1502566555
 C         -1.1818541723       -0.4705433135        0.1843850290
 C          0.2647068220       -0.5585643459        0.2202615628
 C          1.0156090984        0.5665671824        0.5779890359
 C          2.3927953545        0.6014195547        0.5179307162
 C          3.0738092994        1.8830611513        0.7255315866
 C          4.0408502822        2.3321175633       -0.1769364755
 C          4.6629848208        3.5503556252        0.0083494130
 C          4.3377434040        4.3436875727        1.0971480581
 C          3.3709309762        3.9151972529        1.9922394893
 C          2.7379969405        2.7016485674        1.8042270438
 C          3.1091719479       -0.5731354573        0.1250957425
 C          4.5347259857       -0.6396874050        0.1560490295
 C          5.2978272917        0.0782704240        1.1171526160
 C          6.6566827729        0.1128099525        1.0797450731
 C          7.3761349364       -0.5584406159        0.0540149360
 C          8.7666972661       -0.4917974637       -0.1483303091
 N          9.4240391311       -1.3776690169       -0.9074824609
 C         10.7135169770       -1.0497568301       -0.8489951690
 C         11.8114825242       -1.7254135297       -1.4561476504
 C         11.6114602650       -2.8933354476       -2.1967195331
 C         12.6806106700       -3.5562690965       -2.7527341416
 C         13.9644232247       -3.0545048586       -2.5630782320
 C         14.1716933961       -1.9002239438       -1.8386137519
 C         13.1064418859       -1.1900866328       -1.2675879736
 C         13.2864334085        0.0501811125       -0.5322252344
 C         14.5434398483        0.6495444025       -0.4067591884
 C         14.7242427053        1.8481024153        0.2473390951
 C         13.6304628415        2.5143292956        0.7966416144
 C         12.3804927606        1.9596053109        0.7064556702
 C         12.1736559533        0.7211456280        0.0667824735
 C         10.9067234813        0.1097123558       -0.0563436826
 N          9.6560298494        0.4502037903        0.3919862726
 C          9.2912665585        1.5550854263        1.1807961075
 C          8.4808371534        2.5511756854        0.6423699850
 C          8.1004035570        3.6231265004        1.4271302533
 C          8.5233271381        3.7101818876        2.7435593662
 C          9.3334764342        2.7206659594        3.2783828559
 C          9.7187693489        1.6426511217        2.5038292809
 C          6.6209696494       -1.3935379836       -0.8220946061
 C          5.2643718290       -1.4393908254       -0.7652355904
 C          2.3466266066       -1.6990211751       -0.2423718465
 C          0.9735395686       -1.7278529472       -0.1785516220
 C          0.2841966310       -3.0022406019       -0.4275158153
 C         -0.6725616745       -3.4811278450        0.4665693244
 C         -1.3012320218       -4.6899168023        0.2398320152
 C         -0.9868133273       -5.4413833437       -0.8811122556
 C         -0.0298899413       -4.9803750186       -1.7698279794
 C          0.6051688903       -3.7738346066       -1.5425086475
 C         -1.9336628058       -1.0829671597       -0.8298752982
 C         -3.3026641829       -0.9739449466       -0.8640406792
 C         -6.2049531884       -0.0497554553        1.2533233606
 C         -7.5777195029        0.0648333030        1.2206876057
 H        -14.2148260961       -3.8439957031        0.9954324864
 H        -15.1553518974       -2.3702184178        0.7800510384
 H        -15.6645936545       -3.5697373099        1.9665941157
 H        -14.4660703108       -3.8706268712        4.0846154400
 H        -13.0164077405       -4.2833424802        3.1778914911
 H        -12.9597830993       -3.0274598817        4.4282195080
 H        -15.1344256132       -0.5762846154        2.5996407234
 H        -15.6347701567       -1.7696480182        3.7942132858
 H        -14.1684696383       -0.8195928709        4.0525567929
 H        -11.2433591024       -2.9339302432        2.9310893719
 H         -9.3314396411       -1.8984383170        1.8598287301
 H        -13.9395478140       -0.4459682398        0.7181736885
 H        -13.7252701121        1.4584801289       -1.1226001102
 H        -13.1657539166        2.0846701417       -4.7587132406
 H        -11.9861689365        3.3901656149       -4.8470645974
 H        -13.6898337014        3.7265763998       -5.1450412672
 H        -14.9079474405        3.3180896427       -1.6819346452
 H        -14.9280900565        2.0727406422       -2.9439084668
 H        -15.3341741705        3.7392281065       -3.3367149893
 H        -13.6791394010        5.5193070099       -3.3076648697
 H        -11.9674736401        5.2008326818       -3.0434719258
 H        -13.0956493128        5.1007180525       -1.6939377037
 H        -10.5324793295        3.5021673965       -3.1199119324
 H         -8.8750243626        2.2093684831       -1.9003138534
 H         -8.0366498404       -0.0185183467       -2.1276774740
 H         -5.5957888833       -0.1697646956       -2.0667280447
 H         -3.7557475355        0.9503846970        1.8760117784
 H         -1.3330314486        0.7457990769        1.9499541805
 H          0.4895322742        1.4796835502        0.8173859140
 H          4.2851228310        1.7262727583       -1.0367906563
 H          5.4022071571        3.8861218617       -0.7046824623
 H          4.8268248195        5.2954823996        1.2446901229
 H          3.1111347994        4.5303353076        2.8417448072
 H          1.9957062551        2.3646460512        2.5138535208
 H          4.7807077628        0.5639567253        1.9306128223
 H          7.1891067160        0.6188698715        1.8683022176
 H         10.6001181857       -3.2515883380       -2.3085593252
 H         12.5298899503       -4.4584216354       -3.3261432072
 H         14.8110471248       -3.5737181894       -2.9884134630
 H         15.1856556074       -1.5537451202       -1.7171968056
 H         15.4087547047        0.1753051376       -0.8407488658
 H         15.7118318763        2.2783233174        0.3212937653
 H         13.7658619722        3.4668418219        1.2870485103
 H         11.5364399434        2.4890761821        1.1166155458
 H          8.1497927497        2.4681433935       -0.3818271973
 H          7.4702393314        4.3930242340        1.0101193871
 H          8.2215085301        4.5478117468        3.3535189949
 H          9.6626904040        2.7851948414        4.3046779162
 H         10.3463301958        0.8634176119        2.9112348488
 H          7.1697684455       -1.9573229344       -1.5592130371
 H          4.7228019871       -2.0380198420       -1.4821495830
 H          2.8670325800       -2.6126540754       -0.4887810799
 H         -0.9124940490       -2.9034290497        1.3470636511
 H         -2.0400776214       -5.0495624956        0.9411587978
 H         -1.4834518221       -6.3835304124       -1.0596798542
 H          0.2206665418       -5.5626386701       -2.6448435071
 H          1.3397678325       -3.4085518902       -2.2461471839
 H         -1.4257837424       -1.6262583007       -1.6116704409
 H         -3.8494372676       -1.4734061288       -1.6502200023
 H         -5.7037358472       -0.0842766296        2.2089679253
 H         -8.1375201209        0.1565478548        2.1395650579
