  60
        -95.72494198
 C          2.3289968345        2.8748560707        0.9162421564
 C          3.5250390105        1.9697329909        0.9187919175
 C          4.7539704565        2.4515371855        1.3496116729
 C          5.8808786192        1.6458451896        1.4575786898
 C          5.8119976015        0.2968982352        1.1751853344
 C          4.6032894809       -0.2168760726        0.7299074930
 C          4.1797025218       -1.5520329164        0.4058760860
 C          4.8277071538       -2.7793672360        0.3868766133
 C          4.1145941332       -3.8983422813        0.0030286172
 C          2.7788467587       -3.8009379550       -0.3752794145
 C          2.1160070792       -2.5875009658       -0.3675390172
 C          2.8199747745       -1.4677923035        0.0435313842
 N          2.4083835491       -0.1449913915        0.1206870549
 C          1.2102877836        0.3175181650       -0.4061013721
 C         -0.0019911902       -0.1666777042        0.0710383809
 C         -1.2098655868        0.3196155421       -0.4135429813
 N         -2.4126344673       -0.1391692696        0.1079221781
 C         -2.8355777504       -1.4568079669        0.0179087803
 C         -2.1457550453       -2.5755509966       -0.4192233440
 C         -2.8184665266       -3.7834062748       -0.4364045529
 C         -4.1498779048       -3.8759624398       -0.0414951590
 C         -4.8489348056       -2.7575394140        0.3687439669
 C         -4.1910931073       -1.5355240944        0.3971231749
 C         -4.5996712665       -0.2014922511        0.7436887805
 C         -5.7984028177        0.3160703133        1.2114540017
 C         -5.8539928255        1.6624347299        1.5084804123
 C         -4.7238639996        2.4621826559        1.3900559153
 C         -3.5045950114        1.9766415393        0.9366657036
 C         -2.3043995083        2.8760858558        0.9188840661
 C         -3.4758806647        0.6349273949        0.5587477432
 C         -1.2016336260        1.2710701529       -1.4569301288
 C         -2.4135961296        1.7095384260       -2.0347175171
 N         -3.3858287611        2.0509878786       -2.5380680990
 C          0.0055213546        1.7357520677       -1.9641405300
 C          1.2089504203        1.2692370043       -1.4494253457
 C          2.4234662851        1.7051053523       -2.0239666062
 N          3.3931248898        2.0521059710       -2.5286664296
 C          3.4831701625        0.6255705062        0.5508833787
 H          2.4860001047        3.6931699069        1.6155725512
 H          1.4289310330        2.3367438003        1.2095617655
 H          2.1646020876        3.3083341412       -0.0707413820
 H          4.8276681925        3.4933216627        1.6255337387
 H          6.8093491625        2.0803519692        1.7950619327
 H          6.6673187347       -0.3475675621        1.3040547294
 H          5.8683765804       -2.8512660923        0.6627450662
 H          4.5984488730       -4.8629111841       -0.0145675630
 H          2.2483032225       -4.6886265950       -0.6852105694
 H          1.0862266305       -2.5220199820       -0.6829235544
 H         -0.0054875968       -0.8868300568        0.8750368809
 H         -1.1201259868       -2.5120953992       -0.7489459771
 H         -2.2999617145       -4.6703032977       -0.7678934433
 H         -4.6417312283       -4.8363411324       -0.0672970576
 H         -5.8866745259       -2.8255917730        0.6567831711
 H         -6.6565602939       -0.3237063122        1.3452875578
 H         -6.7739009910        2.0994475490        1.8650295704
 H         -4.7872443067        3.5023398459        1.6748271346
 H         -1.4033114608        2.3345601297        1.2025586594
 H         -2.1500835188        3.3063424577       -0.0711433381
 H         -2.4492289297        3.6965743321        1.6181128448
 H          0.0087006452        2.4486739670       -2.7757109667
  60
        -95.72437495
 C          2.2631232056        3.1749297626        0.0225262548
 C          3.4213857214        2.3079863233        0.4170585449
 C          4.6256801100        2.8907818163        0.7883310937
 C          5.7112129920        2.1499220503        1.2392563012
 C          5.6210289181        0.7798304330        1.3768948967
 C          4.4367070311        0.1618222966        1.0043552934
 C          3.9968203966       -1.2056813900        1.0661279532
 C          4.6047987056       -2.3847901431        1.4747823193
 C          3.8888197662       -3.5626593482        1.3868181270
 C          2.5906695149       -3.5760678140        0.8848494510
 C          1.9662152941       -2.4139207683        0.4695752694
 C          2.6735218349       -1.2274178748        0.5803744263
 N          2.3018246656        0.0591823510        0.2163039306
 C          1.1594521464        0.3390047786       -0.5206576478
 C         -0.0912329937       -0.0036564604       -0.0231320427
 C         -1.2498847496        0.2527564837       -0.7460903031
 N         -2.4886342238       -0.0996996520       -0.2273292503
 C         -3.3344801375       -1.0232431720       -0.8245773590
 C         -3.2133175355       -1.6700389864       -2.0439369812
 C         -4.1930297825       -2.5832088556       -2.3868438627
 C         -5.2575758027       -2.8610439442       -1.5340737665
 C         -5.3624705551       -2.2428131358       -0.3040121606
 C         -4.3914910235       -1.3195615057        0.0592888266
 C         -4.1767096094       -0.5273527260        1.2393835722
 C         -4.9008710831       -0.3874834036        2.4142085980
 C         -4.4440877892        0.5091387037        3.3583465065
 C         -3.3165150487        1.2837710264        3.1131988854
 C         -2.5734122415        1.1804515272        1.9444800041
 C         -1.4243410809        2.1157715788        1.7078504707
 C         -2.9941232316        0.2180074012        1.0264358477
 C         -1.1482460402        0.8464023916       -2.0218109736
 C         -2.3088440561        1.1810268081       -2.7542335426
 N         -3.2392835377        1.4904163689       -3.3486187901
 C          0.1017134838        1.1596863483       -2.5441529079
 C          1.2541912634        0.9057424938       -1.8103364342
 C          2.5157849888        1.1574068647       -2.3937257942
 N          3.5284309312        1.3351354412       -2.9017006825
 C          3.3637528353        0.9165264191        0.4794059834
 H          1.3214764704        2.7593845462        0.3761871461
 H          2.2060713015        3.2838939456       -1.0609384134
 H          2.3851735419        4.1680686180        0.4490867604
 H          4.7118469765        3.9662666119        0.7364488520
 H          6.6219773701        2.6611754179        1.5110315252
 H          6.4407747766        0.2006846458        1.7723756724
 H          5.6177048956       -2.3762540431        1.8461368731
 H          4.3419563795       -4.4903216112        1.7007544712
 H          2.0588471594       -4.5128369441        0.8134828870
 H          0.9651602148       -2.4420374232        0.0649684184
 H         -0.1695029736       -0.4692187480        0.9471097707
 H         -2.3877523604       -1.4761177418       -2.7122042120
 H         -4.1272187840       -3.0921271959       -3.3364843428
 H         -6.0044511365       -3.5777006860       -1.8396928031
 H         -6.1768208186       -2.4714980693        0.3661639819
 H         -5.8019320523       -0.9586477844        2.5729527543
 H         -4.9803998265        0.6377350106        4.2856421073
 H         -3.0117526663        2.0108482522        3.8518817562
 H         -0.4685052161        1.6437572735        1.9385923480
 H         -1.4024399151        2.4481350771        0.6711042839
 H         -1.5256375817        2.9902190400        2.3467435669
 H          0.1767735240        1.6003708367       -3.5274806612
  60
        -95.72348740
 C          1.2481433272        2.7110881762        0.5440518839
 C          2.3664613144        1.9932972856        1.2406384640
 C          3.0390395485        2.6113456324        2.2867051452
 C          4.1366520184        2.0382125482        2.9183962946
 C          4.6334474275        0.8205561798        2.5008534266
 C          3.9802159520        0.1667580256        1.4662504701
 C          4.2501631538       -1.0651106229        0.7763446814
 C          5.2196636977       -2.0478869202        0.9232997880
 C          5.1754569412       -3.1482122678        0.0902130517
 C          4.1718392890       -3.2844436763       -0.8649475236
 C          3.1946890600       -2.3200331889       -1.0266668613
 C          3.2567401285       -1.1990392063       -0.2144950893
 N          2.3971493540       -0.1131254672       -0.1448763983
 C          1.2056300066       -0.0363066004       -0.8547466169
 C         -0.0070905588        0.0151628296       -0.1804799431
 C         -1.2131898717        0.0632475798       -0.8682552543
 N         -2.4101291368        0.1201134354       -0.1670894778
 C         -3.2918720324        1.1887395124       -0.2350106198
 C         -3.2640861215        2.3031481807       -1.0579164105
 C         -4.2598624343        3.2479406944       -0.8929985700
 C         -5.2482030386        3.0998408891        0.0760614743
 C         -5.2578557949        2.0072149767        0.9203622707
 C         -4.2695004776        1.0440391958        0.7701050794
 C         -3.9658929983       -0.1752022101        1.4687362160
 C         -4.5899181691       -0.8300181363        2.5204360592
 C         -4.0634023456       -2.0338270115        2.9421617891
 C         -2.9690858703       -2.5955263253        2.2949929450
 C         -2.3263043141       -1.9767728945        1.2306176822
 C         -1.2161129893       -2.6880413656        0.5146698214
 C         -2.8130663680       -0.7227744678        0.8603866429
 C         -1.2013180052        0.0727496651       -2.2785927891
 C         -2.4102381835        0.0672896698       -3.0096458522
 N         -3.3797845170        0.0327925698       -3.6204583651
 C          0.0079357983        0.0170992260       -2.9629186376
 C          1.2091073980       -0.0428958233       -2.2651926884
 C          2.4271763724       -0.0472006767       -2.9809844623
 N          3.4058380193       -0.0229683041       -3.5775712972
 C          2.8284605351        0.7301502796        0.8699329683
 H          1.3090532157        3.7763866712        0.7538931621
 H          0.2710347085        2.3612310804        0.8788876898
 H          1.3079196253        2.5693119621       -0.5338636868
 H          2.7024551603        3.5864228960        2.6079284603
 H          4.6174539987        2.5700906907        3.7250564513
 H          5.5116864895        0.3880079109        2.9536952290
 H          5.9866441170       -1.9504563242        1.6761100971
 H          5.9226588217       -3.9214143992        0.1831088494
 H          4.1523111899       -4.1624229228       -1.4925036168
 H          2.4160580147       -2.4462103375       -1.7639655698
 H         -0.0136980104        0.0143292643        0.8986109911
 H         -2.4977713900        2.4394659516       -1.8060487546
 H         -4.2672591122        4.1197869152       -1.5293152052
 H         -6.0108942591        3.8575793294        0.1709326609
 H         -6.0125958833        1.9009185924        1.6842833375
 H         -5.4685448923       -0.4092616609        2.9834768412
 H         -4.5197114489       -2.5651155972        3.7632697670
 H         -2.6109736908       -3.5621958701        2.6182426053
 H         -0.2345308986       -2.3393289641        0.8375119569
 H         -1.2728119218       -3.7546722670        0.7194176725
 H         -1.2914243337       -2.5405119614       -0.5614587671
 H          0.0140376077        0.0180676488       -4.0430502877
