  79
  -125.375942444100       0.474326955915795      !
 C         -6.1062284233       -4.7206910125       -0.5161492636
 C         -6.7904250198       -3.5153833358       -0.4795858157
 C         -6.0969549362       -2.3290710946       -0.3407438915
 C         -4.7070248732       -2.3416700607       -0.2381268245
 C         -3.9695450916       -1.0868875639       -0.1020179948
 N         -4.6640943394        0.0419268415        0.0013915376
 C         -3.9542853095        1.1615236139        0.1011393440
 C         -4.6755247944        2.4257594180        0.2362242206
 C         -6.0646779393        2.4303676436        0.3486448273
 C         -6.7429886110        3.6256410931        0.4853293498
 C         -6.0443677912        4.8227931683        0.5090978793
 C         -4.6627018889        4.8236691406        0.3957030977
 C         -3.9776837116        3.6319440321        0.2608156786
 N         -2.6232580995        1.1995413475        0.0874670107
 C         -2.0115235082        0.0244516159       -0.0015278729
 C         -0.5458502013        0.0125355908        0.0007421720
 C          0.1573165226        1.2082824731        0.0916746805
 C          1.5468656276        1.1951256986        0.0786254082
 N          2.2612344656        2.3966882255        0.1322119418
 C          2.0245481234        3.5047077053       -0.6601705538
 C          1.0845975616        3.6920828147       -1.6635516433
 C          1.0840779063        4.9032179166       -2.3289318821
 C          1.9991551893        5.9063448027       -2.0172628572
 C          2.9518511360        5.7168265852       -1.0364528451
 C          2.9714446913        4.5080788684       -0.3530969011
 C          3.8124278389        3.9742995997        0.6815474182
 C          4.8898998600        4.4855396682        1.3924346419
 C          5.4757152368        3.6977308879        2.3630632887
 C          4.9879336328        2.4226872553        2.6396100744
 C          3.9169586525        1.8925664621        1.9454819298
 C          3.3416659302        2.6683593525        0.9492599259
 C          2.2294155288       -0.0161667175        0.0115955460
 C          1.5229204249       -1.2131992854       -0.0636520711
 N          2.2114541940       -2.4294801634       -0.1175415755
 C          3.2906561875       -2.7207755533       -0.9296240760
 C          3.8954602922       -1.9492428011       -1.9115615822
 C          4.9565414256       -2.5007096386       -2.6043024723
 C          5.4061917149       -3.7923312076       -2.3404221094
 C          4.7904557644       -4.5754702883       -1.3846902762
 C          3.7221133445       -4.0429298220       -0.6756572245
 C          2.8565701255       -4.5670841990        0.3435300022
 C          2.7945287291       -5.7852136766        1.0073585516
 C          1.8253550238       -5.9626080047        1.9742308740
 C          0.9365681182       -4.9382204322        2.2924997068
 C          0.9800120813       -3.7170711045        1.6470972309
 C          1.9355989439       -3.5416081816        0.6563852420
 C          0.1337483428       -1.1970333119       -0.0873950421
 N         -2.6393441729       -1.1422173790       -0.0912017029
 C         -4.0239467905       -3.5560434239       -0.2744381285
 C         -4.7239090381       -4.7387358983       -0.4126202112
 H         -6.6509418586       -5.6470217713       -0.6260199814
 H         -7.8673440740       -3.5042728748       -0.5617886765
 H         -6.6120157059       -1.3816778147       -0.3129126967
 H         -6.5910602525        1.4890376014        0.3304232218
 H         -7.8193705860        3.6279180837        0.5744529576
 H         -6.5772031413        5.7562672204        0.6166977514
 H         -4.1203107862        5.7575483402        0.4142720672
 H         -2.9026968137        3.6149943729        0.1720596490
 H         -0.3867196047        2.1336805289        0.1851254350
 H          0.3816917070        2.9170151785       -1.9276395708
 H          0.3595692078        5.0742233556       -3.1113380902
 H          1.9645959157        6.8394177415       -2.5595221722
 H          3.6720836049        6.4868488148       -0.8048907026
 H          5.2553962763        5.4808821740        1.1900471379
 H          6.3169779098        4.0744812830        2.9252915663
 H          5.4546106461        1.8356987374        3.4168130867
 H          3.5358024938        0.9118277063        2.1857807090
 H          3.3082074779       -0.0270749525        0.0170497604
 H          3.5441101806       -0.9553259958       -2.1428281637
 H          5.4454692380       -1.9173327262       -3.3704669028
 H          6.2406644930       -4.1856798199       -2.9014156174
 H          5.1258236580       -5.5832817720       -1.1921608471
 H          3.4943741880       -6.5724277553        0.7711745705
 H          1.7571944880       -6.9031644014        2.5001630484
 H          0.1983495783       -5.1005070759        3.0638506891
 H          0.2968874400       -2.9262435750        1.9162280045
 H         -0.4291645206       -2.1103605357       -0.1869410416
 H         -2.9481662807       -3.5530239278       -0.1941346146
 H         -4.1926502543       -5.6788228025       -0.4408181915
  79
  -125.375566701500       0.318712034929037      !
 C         -6.0791967823       -4.7043496456        0.7421143227
 C         -6.7683655708       -3.5263787616        0.4977867383
 C         -6.0771145708       -2.3463519151        0.3044879804
 C         -4.6843480533       -2.3385833308        0.3538666559
 C         -3.9470677095       -1.0925257613        0.1541520883
 N         -4.6387728869        0.0299405604       -0.0170729433
 C         -3.9262972743        1.1412424399       -0.1749285291
 C         -4.6389126772        2.3995445215       -0.3871174187
 C         -6.0322574169        2.4267248304       -0.3866552327
 C         -6.6996410941        3.6179488030       -0.5951614357
 C         -5.9858667134        4.7877905023       -0.8049621038
 C         -4.5995455779        4.7659807635       -0.8056671564
 C         -3.9254876600        3.5786194473       -0.5980989243
 N         -2.5952223673        1.1774659369       -0.1547392808
 C         -1.9880781599        0.0080472677        0.0032967273
 C         -0.5230958906       -0.0028370291        0.0070528843
 C          0.1736409381        1.1845577573        0.1929070659
 C          1.5633578413        1.1796072045        0.1796519472
 N          2.2656532064        2.3767038275        0.3510742373
 C          1.9843514397        3.5688673673       -0.2907213087
 C          1.0382856982        3.8485906251       -1.2667439710
 C          0.9841255585        5.1375318513       -1.7620334849
 C          1.8540028131        6.1282995658       -1.3122508554
 C          2.8158830429        5.8488915231       -0.3623380474
 C          2.8882148278        4.5610198039        0.1519328560
 C          3.7481716027        3.9310582746        1.1144576744
 C          4.7996002682        4.3900285887        1.8963909027
 C          5.4121074243        3.5087782580        2.7648026332
 C          4.9754628630        2.1904811977        2.8710830655
 C          3.9311772512        1.7109597208        2.1033572547
 C          3.3299764789        2.5837501163        1.2077846926
 C          2.2513571686       -0.0173457698        0.0003830565
 C          1.5496803496       -1.2073651830       -0.1725761306
 N          2.2395821173       -2.4116578888       -0.3438473923
 C          1.9616006567       -3.5944559723        0.3162338816
 C          1.0198325344       -3.8596167440        1.3003364808
 C          0.9677569669       -5.1411970578        1.8145061890
 C          1.8354110792       -6.1384862422        1.3748159500
 C          2.7923806001       -5.8734085722        0.4159387648
 C          2.8626380272       -4.5931712251       -0.1174325432
 C          3.7173595142       -3.9771663348       -1.0934883559
 C          4.7635889051       -4.4472173154       -1.8759433637
 C          5.3704592424       -3.5782954826       -2.7605585317
 C          4.9338446367       -2.2612230726       -2.8821863216
 C          3.8950914074       -1.7706186972       -2.1140135180
 C          3.2994640055       -2.6310031510       -1.2028372475
 C          0.1598260342       -1.1981466187       -0.1791570581
 N         -2.6165051526       -1.1509330319        0.1547452424
 C         -3.9957947906       -3.5255735846        0.5995542191
 C         -4.6937713996       -4.7015951814        0.7927947952
 H         -6.6226112680       -5.6255982607        0.8933797758
 H         -7.8477713631       -3.5317583827        0.4586268067
 H         -6.5960847288       -1.4203330342        0.1127226969
 H         -6.5704014218        1.5065959951       -0.2215356433
 H         -7.7795983508        3.6383267675       -0.5948969383
 H         -6.5106200412        5.7177255368       -0.9685453953
 H         -4.0455207819        5.6786929645       -0.9689522376
 H         -2.8471822102        3.5429971851       -0.5981447036
 H         -0.3746564435        2.0958407805        0.3666855988
 H          0.3703423913        3.0866631446       -1.6380088111
 H          0.2520941927        5.3810716670       -2.5178258671
 H          1.7769323512        7.1244528638       -1.7216627928
 H          3.5017100536        6.6111300010       -0.0248630518
 H          5.1243889142        5.4170596963        1.8268368805
 H          6.2337766573        3.8439792150        3.3797517960
 H          5.4608381265        1.5281286157        3.5725897743
 H          3.5889458091        0.6935596372        2.2144800442
 H          3.3301139330       -0.0230743831       -0.0046272043
 H          0.3538687427       -3.0917447429        1.6629205632
 H          0.2397254050       -5.3736408846        2.5775597473
 H          1.7610874921       -7.1283106152        1.7997867390
 H          3.4764660643       -6.6408650840        0.0866994718
 H          5.0884951702       -5.4734280517       -1.7947163498
 H          6.1872169992       -3.9225859513       -3.3771324866
 H          5.4145410780       -1.6092655787       -3.5965028083
 H          3.5524820684       -0.7544895119       -2.2356905520
 H         -0.3987132344       -2.1039390569       -0.3495275305
 H         -2.9177295432       -3.5052080040        0.6375020868
 H         -4.1584788144       -5.6203157203        0.9832679456
  79
  -125.375158688200       0.206961009155168      !
 C         -6.0359186113       -4.6743967332       -1.1150442099
 C         -6.7359659385       -3.4917423674       -0.9322242717
 C         -6.0554563251       -2.3127041417       -0.6988669534
 C         -4.6628310407       -2.3106372496       -0.6445990085
 C         -3.9380254973       -1.0648275712       -0.4010861165
 N         -4.6358819293        0.0634274036       -0.3166590472
 C         -3.9343269387        1.1744854438       -0.1139721760
 C         -4.6564344356        2.4430910697       -0.0368164685
 C         -6.0457607645        2.4663151785       -0.1461737396
 C         -6.7244712740        3.6671250067       -0.0751157468
 C         -6.0259878792        4.8513697903        0.1038303545
 C         -4.6439797145        4.8336917763        0.2120578091
 C         -3.9588763508        3.6364071516        0.1429424271
 N         -2.6096170209        1.2013010591        0.0182986416
 C         -1.9953130956        0.0274179862       -0.0672525209
 C         -0.5354978656        0.0063981097        0.0607138594
 C          0.1623244854        1.1955294119        0.2364786283
 C          1.5492356327        1.1768988251        0.3197067790
 N          2.2545116289        2.3784210205        0.4541038613
 C          2.0710240219        3.5043892241       -0.3270086863
 C          1.2093395000        3.7104498344       -1.3948039115
 C          1.2470168746        4.9389204478       -2.0262806125
 C          2.1250158841        5.9408101273       -1.6186914288
 C          3.0013134976        5.7332315187       -0.5725212902
 C          2.9806400798        4.5071116231        0.0792179041
 C          3.7405201757        3.9545595957        1.1653363871
 C          4.7494536674        4.4555613479        1.9770730541
 C          5.2577867500        3.6491962989        2.9758721286
 C          4.7590250856        2.3650538312        3.1821119510
 C          3.7553870637        1.8461349348        2.3871301978
 C          3.2609313612        2.6393933387        1.3625231699
 C          2.2358815219       -0.0312369443        0.2321935059
 C          1.5328470382       -1.2233506657        0.0794362036
 N          2.2172780759       -2.4388725986       -0.0293477487
 C          1.9858305237       -3.4013697694       -0.9954300790
 C          1.1074920524       -3.3863560988       -2.0696518204
 C          1.0951594165       -4.4840998329       -2.9088767349
 C          1.9403353690       -5.5714380765       -2.6991140083
 C          2.8355846911       -5.5803695930       -1.6485161802
 C          2.8655336197       -4.4884556254       -0.7910184326
 C          3.6592816643       -4.1617679806        0.3602342463
 C          4.6631649287       -4.8313355925        1.0468802819
 C          5.2167647982       -4.2322302722        2.1607078989
 C          4.7672880275       -2.9898229381        2.6014427091
 C          3.7688094502       -2.3063570414        1.9345497248
 C          3.2281269759       -2.8884592080        0.7977529112
 C          0.1454466606       -1.2035914671       -0.0009209815
 N         -2.6132386910       -1.1276175087       -0.2832853726
 C         -3.9635970293       -3.5024871784       -0.8280052642
 C         -4.6505166959       -4.6774239016       -1.0629845998
 H         -6.5706291517       -5.5948981085       -1.2984100336
 H         -7.8153049861       -3.4926429666       -0.9727535578
 H         -6.5830396680       -1.3829524751       -0.5551703831
 H         -6.5723062715        1.5351494255       -0.2858431445
 H         -7.8010391572        3.6839998927       -0.1598876478
 H         -6.5593337279        5.7890380816        0.1594544874
 H         -4.1014037132        5.7575045632        0.3501809331
 H         -2.8836992494        3.6053333468        0.2249764123
 H         -0.3843249096        2.1207476918        0.3153891696
 H          0.5361160002        2.9370064354       -1.7310998494
 H          0.5821129111        5.1251521826       -2.8566771507
 H          2.1221882332        6.8880762516       -2.1369334599
 H          3.6927235671        6.5034667297       -0.2660075231
 H          5.1221727410        5.4579323921        1.8299625463
 H          6.0448144833        4.0186283713        3.6161571172
 H          5.1616021369        1.7641367476        3.9841583082
 H          3.3579509689        0.8607004391        2.5723336486
 H          3.3150540920       -0.0391328746        0.2484564312
 H          0.4600934444       -2.5432794720       -2.2555199072
 H          0.4164251558       -4.4973234490       -3.7487862592
 H          1.8977372175       -6.4116803694       -3.3758871208
 H          3.5034374540       -6.4143286183       -1.4943994489
 H          4.9969982291       -5.8030025441        0.7156282667
 H          6.0004026535       -4.7347086711        2.7077528840
 H          5.2051559815       -2.5529103407        3.4867560355
 H          3.4129175943       -1.3567956678        2.3010692903
 H         -0.4157524754       -2.1180079621       -0.1003134277
 H         -2.8856707714       -3.4874650948       -0.7859728324
 H         -4.1066859344       -5.5996362411       -1.2066191277
