  79
       -125.85189699
 C         -6.0075357588       -4.7992494017        0.7176294733
 C         -6.7146439245       -3.6289073588        0.4883642656
 C         -6.0413040580       -2.4370642595        0.3045731769
 C         -4.6486000130       -2.4096557542        0.3484068816
 C         -3.9302154587       -1.1510599520        0.1587020602
 N         -4.6387528947       -0.0370071765        0.0019671805
 C         -3.9430509378        1.0860620147       -0.1471841880
 C         -4.6746274085        2.3360505704       -0.3433816499
 C         -6.0682051131        2.3430610850       -0.3370113832
 C         -6.7535718334        3.5265984948       -0.5304074030
 C         -6.0576332865        4.7087547915       -0.7308963491
 C         -4.6711568895        4.7070148847       -0.7374251944
 C         -3.9791763340        3.5274458017       -0.5449538143
 N         -2.6125642700        1.1413304774       -0.1319927646
 C         -1.9879561244       -0.0207542124        0.0114064357
 C         -0.5229664066       -0.0104784202        0.0091347110
 C          0.1573399425        1.1848856660        0.2045274870
 C          1.5469159545        1.2001813350        0.1856111846
 N          2.2325798199        2.4054755558        0.3666515427
 C          1.9314236476        3.6000243221       -0.2615556821
 C          0.9773424574        3.8761186351       -1.2307856539
 C          0.9025195517        5.1691996510       -1.7124053453
 C          1.7598885547        6.1677406995       -1.2558468241
 C          2.7296685757        5.8924606770       -0.3127856417
 C          2.8227251246        4.6005154257        0.1877520299
 C          3.6957032918        3.9731320769        1.1401859973
 C          4.7436660062        4.4391482440        1.9226044548
 C          5.3724536520        3.5579097489        2.7793138025
 C          4.9553219055        2.2324031483        2.8736244612
 C          3.9148574105        1.7457953445        2.1051697220
 C          3.2973831945        2.6190200201        1.2211675072
 C          2.2513549793        0.0152285473       -0.0088865874
 C          1.5662010550       -1.1829647233       -0.1913925567
 N          2.2726816801       -2.3753113489       -0.3779772991
 C          2.0145591855       -3.5687778739        0.2708699235
 C          1.0808432718       -3.8577112665        1.2559523789
 C          1.0494153187       -5.1451651465        1.7569566153
 C          1.9295179678       -6.1251902704        1.3034073174
 C          2.8785403861       -5.8363811579        0.3434864678
 C          2.9280871219       -4.5498081698       -0.1768055564
 C          3.7697384302       -3.9114289969       -1.1498373656
 C          4.8193547529       -4.3581670546       -1.9413614554
 C          5.4099170233       -3.4714438355       -2.8193243765
 C          4.9538415436       -2.1596382478       -2.9254687274
 C          3.9113442219       -1.6920940179       -2.1480421341
 C          3.3320116681       -2.5703935045       -1.2434762658
 C          0.1763430171       -1.1937896929       -0.1922660710
 N         -2.5989579353       -1.1902118246        0.1533153965
 C         -3.9419714904       -3.5890387247        0.5789405597
 C         -4.6220942328       -4.7769739207        0.7627423245
 H         -6.5369650797       -5.7297809918        0.8614874082
 H         -7.7940142798       -3.6494989612        0.4535084637
 H         -6.5743779030       -1.5167158364        0.1245565876
 H         -6.5923226933        1.4135819333       -0.1793097945
 H         -7.8337001094        3.5313442822       -0.5255708233
 H         -6.5964281436        5.6326433172       -0.8826685819
 H         -4.1310456320        5.6292893680       -0.8934337232
 H         -2.9004788394        3.5074319647       -0.5497237427
 H         -0.4033146450        2.0862919447        0.3899968906
 H          0.3189119971        3.1084905890       -1.6072638603
 H          0.1638927257        5.4099332508       -2.4626595909
 H          1.6667414257        7.1668595898       -1.6545502715
 H          3.4058347524        6.6610082436        0.0298358664
 H          5.0533102126        5.4714363093        1.8624368697
 H          6.1917692431        3.8985803880        3.3943975046
 H          5.4531352001        1.5699161231        3.5662315771
 H          3.5878074875        0.7224540553        2.2070741781
 H          3.3300516871        0.0251615524       -0.0183112609
 H          0.4053950392       -3.1033504606        1.6291974168
 H          0.3280142905       -5.3960057569        2.5204815759
 H          1.8712619728       -7.1203328740        1.7183457394
 H          3.5722418717       -6.5904095329        0.0035153066
 H          5.1593691900       -5.3803550992       -1.8721359668
 H          6.2289678763       -3.7974788538       -3.4427419485
 H          5.4220872757       -1.4934336822       -3.6348932102
 H          3.5536047808       -0.6798233226       -2.2577486189
 H         -0.3697790953       -2.1057566767       -0.3698020177
 H         -2.8641628001       -3.5534703836        0.6127458171
 H         -4.0728105028       -5.6897756063        0.9414769549
