  79
  -125.851896990000       0.292466917975592      !
 C         -6.0075357588       -4.7992494017        0.7176294733
 C         -6.7146439245       -3.6289073588        0.4883642656
 C         -6.0413040580       -2.4370642595        0.3045731769
 C         -4.6486000130       -2.4096557542        0.3484068816
 C         -3.9302154587       -1.1510599520        0.1587020602
 N         -4.6387528947       -0.0370071765        0.0019671805
 C         -3.9430509378        1.0860620147       -0.1471841880
 C         -4.6746274085        2.3360505704       -0.3433816499
 C         -6.0682051131        2.3430610850       -0.3370113832
 C         -6.7535718334        3.5265984948       -0.5304074030
 C         -6.0576332865        4.7087547915       -0.7308963491
 C         -4.6711568895        4.7070148847       -0.7374251944
 C         -3.9791763340        3.5274458017       -0.5449538143
 N         -2.6125642700        1.1413304774       -0.1319927646
 C         -1.9879561244       -0.0207542124        0.0114064357
 C         -0.5229664066       -0.0104784202        0.0091347110
 C          0.1573399425        1.1848856660        0.2045274870
 C          1.5469159545        1.2001813350        0.1856111846
 N          2.2325798199        2.4054755558        0.3666515427
 C          1.9314236476        3.6000243221       -0.2615556821
 C          0.9773424574        3.8761186351       -1.2307856539
 C          0.9025195517        5.1691996510       -1.7124053453
 C          1.7598885547        6.1677406995       -1.2558468241
 C          2.7296685757        5.8924606770       -0.3127856417
 C          2.8227251246        4.6005154257        0.1877520299
 C          3.6957032918        3.9731320769        1.1401859973
 C          4.7436660062        4.4391482440        1.9226044548
 C          5.3724536520        3.5579097489        2.7793138025
 C          4.9553219055        2.2324031483        2.8736244612
 C          3.9148574105        1.7457953445        2.1051697220
 C          3.2973831945        2.6190200201        1.2211675072
 C          2.2513549793        0.0152285473       -0.0088865874
 C          1.5662010550       -1.1829647233       -0.1913925567
 N          2.2726816801       -2.3753113489       -0.3779772991
 C          2.0145591855       -3.5687778739        0.2708699235
 C          1.0808432718       -3.8577112665        1.2559523789
 C          1.0494153187       -5.1451651465        1.7569566153
 C          1.9295179678       -6.1251902704        1.3034073174
 C          2.8785403861       -5.8363811579        0.3434864678
 C          2.9280871219       -4.5498081698       -0.1768055564
 C          3.7697384302       -3.9114289969       -1.1498373656
 C          4.8193547529       -4.3581670546       -1.9413614554
 C          5.4099170233       -3.4714438355       -2.8193243765
 C          4.9538415436       -2.1596382478       -2.9254687274
 C          3.9113442219       -1.6920940179       -2.1480421341
 C          3.3320116681       -2.5703935045       -1.2434762658
 C          0.1763430171       -1.1937896929       -0.1922660710
 N         -2.5989579353       -1.1902118246        0.1533153965
 C         -3.9419714904       -3.5890387247        0.5789405597
 C         -4.6220942328       -4.7769739207        0.7627423245
 H         -6.5369650797       -5.7297809918        0.8614874082
 H         -7.7940142798       -3.6494989612        0.4535084637
 H         -6.5743779030       -1.5167158364        0.1245565876
 H         -6.5923226933        1.4135819333       -0.1793097945
 H         -7.8337001094        3.5313442822       -0.5255708233
 H         -6.5964281436        5.6326433172       -0.8826685819
 H         -4.1310456320        5.6292893680       -0.8934337232
 H         -2.9004788394        3.5074319647       -0.5497237427
 H         -0.4033146450        2.0862919447        0.3899968906
 H          0.3189119971        3.1084905890       -1.6072638603
 H          0.1638927257        5.4099332508       -2.4626595909
 H          1.6667414257        7.1668595898       -1.6545502715
 H          3.4058347524        6.6610082436        0.0298358664
 H          5.0533102126        5.4714363093        1.8624368697
 H          6.1917692431        3.8985803880        3.3943975046
 H          5.4531352001        1.5699161231        3.5662315771
 H          3.5878074875        0.7224540553        2.2070741781
 H          3.3300516871        0.0251615524       -0.0183112609
 H          0.4053950392       -3.1033504606        1.6291974168
 H          0.3280142905       -5.3960057569        2.5204815759
 H          1.8712619728       -7.1203328740        1.7183457394
 H          3.5722418717       -6.5904095329        0.0035153066
 H          5.1593691900       -5.3803550992       -1.8721359668
 H          6.2289678763       -3.7974788538       -3.4427419485
 H          5.4220872757       -1.4934336822       -3.6348932102
 H          3.5536047808       -0.6798233226       -2.2577486189
 H         -0.3697790953       -2.1057566767       -0.3698020177
 H         -2.8641628001       -3.5534703836        0.6127458171
 H         -4.0728105028       -5.6897756063        0.9414769549
  79
  -125.851896950000       0.292454538757206      !
 C         -6.0029104534       -4.8426044422        0.3074367867
 C         -6.7138369823       -3.6586789909        0.1851267415
 C         -6.0442563427       -2.4533010730        0.1042740858
 C         -4.6515720512       -2.4257608799        0.1449162423
 C         -3.9367363109       -1.1535417045        0.0606578224
 N         -4.6481116576       -0.0320895742       -0.0014012325
 C         -3.9547160942        1.1004484305       -0.0671977760
 C         -4.6901466020        2.3616910434       -0.1375174644
 C         -6.0829768153        2.3663216450       -0.0905705280
 C         -6.7721895852        3.5616243543       -0.1540486948
 C         -6.0808496610        4.7582371558       -0.2651103133
 C         -4.6953059994        4.7588096319       -0.3135354745
 C         -3.9995864555        3.5674507736       -0.2502582953
 N         -2.6242208628        1.1562948302       -0.0716848661
 C         -1.9962085357       -0.0114736860       -0.0129599839
 C         -0.5311756749       -0.0010285341       -0.0162408134
 C          0.1516901527        1.1966656740        0.1570987119
 C          1.5412694170        1.2071692781        0.1467990635
 N          2.2306485898        2.4150676354        0.2953941147
 C          1.9553077959        3.5823265102       -0.3925068390
 C          1.0140838985        3.8260332129       -1.3826067788
 C          0.9674046317        5.0940118968       -1.9298891349
 C          1.8393488892        6.0986472081       -1.5162205255
 C          2.7944218683        5.8549191124       -0.5497164928
 C          2.8594042051        4.5886580399        0.0165786684
 C          3.7122481543        3.9941164941        1.0075632856
 C          4.7602069727        4.4795793977        1.7780693109
 C          5.3657275836        3.6297435521        2.6819986711
 C          4.9264201034        2.3167433661        2.8340873460
 C          3.8859008031        1.8109320319        2.0782759650
 C          3.2911683339        2.6518307005        1.1485680039
 C          2.2440593317        0.0155288238       -0.0083787702
 C          1.5567913342       -1.1844785447       -0.1694383058
 N          2.2610579514       -2.3843042884       -0.3116640856
 C          3.3385743442       -2.6067851087       -1.1474688752
 C          3.9369647256       -1.7585738915       -2.0682064253
 C          4.9960398395       -2.2507850261       -2.8070803355
 C          5.4502867703       -3.5578080947       -2.6475386671
 C          4.8416618186       -4.4152152404       -1.7529544696
 C          3.7754523598       -3.9432309023       -0.9993259118
 C          2.9148882921       -4.5492786917       -0.0221370032
 C          2.8589285891       -5.8162730879        0.5435073466
 C          1.8920231337       -6.0735883864        1.4945521340
 C          0.9995899876       -5.0812710896        1.8938595733
 C          1.0375394874       -3.8125421756        1.3475311406
 C          1.9908352204       -3.5553618920        0.3724051500
 C          0.1672278117       -1.1899806133       -0.1883107648
 N         -2.6056569423       -1.1887306970        0.0530256056
 C         -3.9412308528       -3.6188492936        0.2685234459
 C         -4.6174095379       -4.8203795728        0.3493362295
 H         -6.5291541074       -5.7838806032        0.3706062677
 H         -7.7931600058       -3.6793382455        0.1529223043
 H         -6.5802782967       -1.5222952620        0.0082792113
 H         -6.6037835293        1.4258134246       -0.0022156291
 H         -7.8516255130        3.5645610709       -0.1166785124
 H         -6.6223848271        5.6916313964       -0.3140984375
 H         -4.1582890908        5.6920160222       -0.4002132091
 H         -2.9215483367        3.5498952265       -0.2885978279
 H         -0.4072240056        2.1041269477        0.3163656689
 H          0.3443099041        3.0521519982       -1.7247641283
 H          0.2401215649        5.3097037523       -2.6985909182
 H          1.7692351770        7.0772100320       -1.9671565597
 H          3.4811189763        6.6279727726       -0.2397746153
 H          5.0876280549        5.5027892301        1.6729285457
 H          6.1840219481        3.9861182837        3.2895419945
 H          5.4067824994        1.6801058433        3.5623290128
 H          3.5413926475        0.7984235271        2.2229967728
 H          3.3228497660        0.0220986310       -0.0031395799
 H          3.5814799949       -0.7508408719       -2.2194485987
 H          5.4795111719       -1.6078740963       -3.5277189920
 H          6.2825499309       -3.9036018284       -3.2420686823
 H          5.1801981079       -5.4342458281       -1.6425070897
 H          3.5619448233       -6.5791461033        0.2451131633
 H          1.8286203689       -7.0530360096        1.9445528046
 H          0.2631143412       -5.3068871184        2.6508925858
 H          0.3522029877       -3.0481426561        1.6800346009
 H         -0.3804116886       -2.1034933847       -0.3519241371
 H         -2.8634987139       -3.5837921698        0.3013911372
 H         -4.0652676016       -5.7438288648        0.4451188625
  79
  -125.851717810000       0.241953173049219      !
 C         -5.9853016487       -4.8652693206        0.1758991314
 C         -6.6874179377       -3.6849804334        0.3659296514
 C         -6.0171407810       -2.4778156797        0.4000163117
 C         -4.6324448483       -2.4447358688        0.2454932886
 C         -3.9189671175       -1.1693536617        0.2776353586
 N         -4.6316988176       -0.0514632494        0.3747196909
 C         -3.9430061290        1.0858035648        0.3808772249
 C         -4.6851672043        2.3424558197        0.4631847157
 C         -6.0754993637        2.3300217540        0.5608980754
 C         -6.7735370560        3.5194430071        0.6361436749
 C         -6.0936611489        4.7275790705        0.6135058594
 C         -4.7109033785        4.7453049723        0.5153274389
 C         -4.0063698192        3.5596801483        0.4407602343
 N         -2.6147457724        1.1487833446        0.3113863257
 C         -1.9833556718       -0.0162490911        0.2293147249
 C         -0.5206670645        0.0012798812        0.1392452601
 C          0.1579344775        1.2140053559        0.1131797316
 C          1.5418899821        1.2287813731       -0.0102924716
 N          2.2213851044        2.4505285239       -0.0792320882
 C          1.8898557220        3.5034180949       -0.9117708136
 C          0.8743929609        3.6028930866       -1.8520303204
 C          0.7803314362        4.7746448557       -2.5783034630
 C          1.6770257988        5.8236645382       -2.3878013392
 C          2.7038001308        5.7211435604       -1.4709140695
 C          2.8175807055        4.5537543470       -0.7273969068
 C          3.7459180289        4.1086679299        0.2738387087
 C          4.8471821891        4.6949930087        0.8831876353
 C          5.5219132460        3.9849352748        1.8562152411
 C          5.0992948648        2.7133322976        2.2366617050
 C          4.0062914395        2.1106604212        1.6444689918
 C          3.3418910161        2.8057619908        0.6449837322
 C          2.2455798185        0.0308337509       -0.1023538439
 C          1.5653046879       -1.1830350098       -0.0525966149
 N          2.2639051613       -2.3901653213       -0.1646999275
 C          1.9229778560       -3.4344282685       -1.0052755110
 C          0.8960727386       -3.5261490720       -1.9340970247
 C          0.7946609032       -4.6903671222       -2.6715275827
 C          1.6950536143       -5.7400488514       -2.5039313973
 C          2.7350103265       -5.6439257173       -1.6014031168
 C          2.8567092937       -4.4836503837       -0.8481263087
 C          3.8006497229       -4.0466468115        0.1418978579
 C          4.9150769942       -4.6371390801        0.7223768939
 C          5.6075851534       -3.9364248876        1.6895604497
 C          5.1892786114       -2.6702363466        2.0916036560
 C          4.0826674556       -2.0641398158        1.5286737321
 C          3.3990181020       -2.7495921162        0.5355643872
 C          0.1812527922       -1.1964554033        0.0736878023
 N         -2.5899612811       -1.1968588857        0.2010414745
 C         -3.9309316604       -3.6342509086        0.0557420638
 C         -4.6079127444       -4.8375870444        0.0206853055
 H         -6.5121579898       -5.8078934701        0.1486360125
 H         -7.7604080897       -3.7097916490        0.4871433107
 H         -6.5466139595       -1.5494932891        0.5459846024
 H         -6.5875195936        1.3805880497        0.5763349975
 H         -7.8508541204        3.5086883267        0.7119178376
 H         -6.6420403300        5.6563019788        0.6729002725
 H         -4.1830330016        5.6875881142        0.4965624334
 H         -2.9303871115        3.5560326069        0.3636313582
 H         -0.3997808090        2.1320219170        0.1985058860
 H          0.1834995286        2.7913401516       -2.0211090858
 H         -0.0050327807        4.8779906649       -3.3123747409
 H          1.5683693946        6.7239660340       -2.9739300887
 H          3.4083902404        6.5273512307       -1.3336449042
 H          5.1626966726        5.6884226587        0.6023729978
 H          6.3826745145        4.4215968464        2.3402341316
 H          5.6340994874        2.1894719508        3.0151232232
 H          3.6714184324        1.1368256547        1.9651601665
 H          3.3151088419        0.0448451344       -0.2467547222
 H          0.2023529271       -2.7140648257       -2.0881168351
 H          0.0004542583       -4.7867992995       -3.3969513968
 H          1.5795854015       -6.6346848757       -3.0973427512
 H          3.4439937539       -6.4491968301       -1.4824582964
 H          5.2267119114       -5.6266155767        0.4238317954
 H          6.4785091386       -4.3763260349        2.1519557761
 H          5.7388077737       -2.1524568774        2.8638230354
 H          3.7551059814       -1.0941523995        1.8670378849
 H         -0.3596221896       -2.1264867829        0.1326517060
 H         -2.8595581164       -3.5952713466       -0.0649092056
 H         -4.0626034619       -5.7580838987       -0.1282499207
  79
  -125.851401490000       0.173125370217984      !
 C         -6.0395971274       -4.8029531969       -0.5406166684
 C         -6.7409519084       -3.6081146550       -0.4887438049
 C         -6.0640931654       -2.4133935180       -0.3403584380
 C         -4.6737085038       -2.4069415286       -0.2434902746
 C         -3.9538442650       -1.1430958902       -0.0973026013
 N         -4.6641670978       -0.0255803287        0.0206575356
 C         -3.9701724678        1.1030770321        0.1291906272
 C         -4.7090035663        2.3552784517        0.2803418750
 C         -6.0975957251        2.3386220608        0.3984116417
 C         -6.7925012645        3.5224766302        0.5502710994
 C         -6.1111305770        4.7293017048        0.5836823158
 C         -4.7301080133        4.7513431756        0.4647257626
 C         -4.0285393908        3.5711148340        0.3146731620
 N         -2.6399011596        1.1604893077        0.1105414543
 C         -2.0116556874       -0.0046417517        0.0068475882
 C         -0.5459663482        0.0046278591        0.0030763120
 C          0.1402512278        1.2094184274        0.1036143363
 C          1.5297787103        1.2165046147        0.0848191028
 N          2.2269568635        2.4276586161        0.1480288082
 C          1.9709944646        3.5402811384       -0.6318121915
 C          1.0242454796        3.7244136290       -1.6293850893
 C          1.0034672890        4.9422378314       -2.2821115603
 C          1.9052746182        5.9552199221       -1.9637118279
 C          2.8647039595        5.7693627452       -0.9887823687
 C          2.9045947229        4.5540154431       -0.3181334600
 C          3.7575157959        4.0217779827        0.7074935474
 C          4.8304673732        4.5411679602        1.4193095158
 C          5.4316462051        3.7519118187        2.3793100655
 C          4.9634721157        2.4671492088        2.6445332566
 C          3.8973594033        1.9288020050        1.9492525093
 C          3.3067682239        2.7064613678        0.9634926092
 C          2.2294457539        0.0159738563        0.0024260604
 C          1.5399843965       -1.1903127305       -0.0824279998
 N          2.2457616199       -2.3958806139       -0.1517576007
 C          3.3256439361       -2.6631075669       -0.9711792706
 C          3.9151376972       -1.8727803858       -1.9474641222
 C          4.9811542857       -2.4016352810       -2.6501873381
 C          5.4504924408       -3.6892781020       -2.4015869203
 C          4.8501257804       -4.4910966576       -1.4515828180
 C          3.7771899853       -3.9814388674       -0.7327362005
 C          2.9235736735       -4.5285851638        0.2844243574
 C          2.8818922794       -5.7542917850        0.9357789783
 C          1.9194355587       -5.9556907892        1.9046566839
 C          1.0173031548       -4.9476203335        2.2371596075
 C          1.0404228005       -3.7193541868        1.6043364337
 C          1.9892222551       -3.5198360750        0.6116552904
 C          0.1506364275       -1.1940038499       -0.1003929062
 N         -2.6229499304       -1.1792818615       -0.0924332626
 C         -3.9733402677       -3.6108631165       -0.2952008851
 C         -4.6567399002       -4.8020658277       -0.4428625534
 H         -6.5713453476       -5.7358815213       -0.6579262919
 H         -7.8182539288       -3.6117372042       -0.5664781987
 H         -6.5926469414       -1.4738908750       -0.3005854772
 H         -6.6104147551        1.3900132722        0.3725152401
 H         -7.8684214612        3.5082561307        0.6437583500
 H         -6.6569221180        5.6538043361        0.7031458130
 H         -4.2011730554        5.6927303406        0.4908272998
 H         -2.9538008981        3.5706409961        0.2214063289
 H         -0.4166825619        2.1258307515        0.2088907310
 H          0.3314947492        2.9420320798       -1.8986887313
 H          0.2732972695        5.1108329012       -3.0597635607
 H          1.8549876645        6.8932588404       -2.4960827769
 H          3.5747159471        6.5472871118       -0.7521249654
 H          5.1807157226        5.5437366041        1.2258224517
 H          6.2697328587        4.1349546132        2.9420296759
 H          5.4418189745        1.8789601264        3.4136921239
 H          3.5314011360        0.9402157396        2.1808637574
 H          3.3082961830        0.0206202356        0.0034111379
 H          3.5485200518       -0.8817105069       -2.1669493058
 H          5.4584027495       -1.8033445865       -3.4122038149
 H          6.2881967813       -4.0646825691       -2.9700098158
 H          5.2008012660       -5.4958892424       -1.2709125186
 H          3.5920266516       -6.5288099145        0.6885879883
 H          1.8670538903       -6.9025292376        2.4210382866
 H          0.2847389115       -5.1285481622        3.0097530682
 H          0.3470931823       -2.9413223203        1.8844422805
 H         -0.3994535328       -2.1143009164       -0.2071695906
 H         -2.8973884632       -3.5931096577       -0.2192140040
 H         -4.1120968797       -5.7340250805       -0.4829915973
