  54
        -89.38730766
 N         -3.3644635087       -2.7978705383       -2.1241680934
 C         -2.4109193011       -2.3351462158       -1.6864028533
 C         -1.2083480000       -1.7662962643       -1.2113581676
 C         -0.0018270735       -2.3417069185       -1.5927317558
 C          1.2076263514       -1.7660487401       -1.2210494367
 C          2.4068795869       -2.3324935644       -1.7072496874
 N          3.3571028957       -2.7940035106       -2.1535334147
 C          1.2156093768       -0.5867498360       -0.4439547799
 N          2.4108582484       -0.0215310505       -0.0292551899
 C          3.4535658870       -0.6926596588        0.5959770150
 C          3.5282044549       -2.0107287772        1.0165657598
 C          4.6815464536       -2.4160955398        1.6622895219
 C          5.7291033005       -1.5317563130        1.9016460336
 C          5.6413774550       -0.2072164737        1.5209428698
 C          4.4930113795        0.2212385856        0.8699029905
 C          4.0573383083        1.5023688749        0.3822932462
 C          4.6462775360        2.7586496655        0.3469491930
 C          3.9467017919        3.8018976028       -0.2279795016
 C          2.6860052059        3.5992036759       -0.7812775957
 C          2.0822881025        2.3553590826       -0.7594299470
 C          2.7659258950        1.3132958914       -0.1547161075
 C          0.0039191265       -0.0101906445       -0.0797415201
 C         -1.2104735367       -0.5859118358       -0.4356983784
 N         -2.4031401276       -0.0192788946       -0.0155073891
 C         -3.4464011320       -0.6916647755        0.6072760649
 C         -3.5146023634       -2.0063764017        1.0393446426
 C         -4.6694501416       -2.4138515948        1.6809621526
 C         -5.7248522940       -1.5346495520        1.9047650093
 C         -5.6436245477       -0.2129587616        1.5128903535
 C         -4.4935081913        0.2177124811        0.8663212895
 C         -4.0619410436        1.4975876547        0.3717827172
 C         -4.6588428630        2.7495803220        0.3216069506
 C         -3.9608087769        3.7932854577       -0.2544182848
 C         -2.6931623814        3.5951337351       -0.7933491812
 C         -2.0817713086        2.3553185447       -0.7575538049
 C         -2.7648794757        1.3126417317       -0.1533290844
 H         -0.0042807458       -3.2327839319       -2.2035194541
 H          2.7179879462       -2.7060959044        0.8573722114
 H          4.7668806998       -3.4408575172        1.9901719244
 H          6.6153960795       -1.8878363188        2.4041565743
 H          6.4422009389        0.4857027986        1.7284235896
 H          5.6332712001        2.9101233973        0.7555372261
 H          4.3855347559        4.7873075142       -0.2627267021
 H          2.1692605650        4.4271659398       -1.2427801605
 H          1.1168287925        2.2048988911       -1.2171529271
 H          0.0063708271        0.8729762737        0.5402722412
 H         -2.6980162290       -2.6970416703        0.8922072414
 H         -4.7497220071       -3.4359054071        2.0184565885
 H         -6.6120650674       -1.8922690174        2.4046772256
 H         -6.4506784649        0.4761781597        1.7086561752
 H         -5.6506306419        2.8974147989        0.7202081359
 H         -4.4058104383        4.7755198373       -0.3003355859
 H         -2.1767012859        4.4235719450       -1.2543172937
 H         -1.1104110570        2.2088017941       -1.2039406590
  54
        -89.38712602
 N         -3.2859579992       -2.1629511632       -2.8566995994
 C         -2.3438838591       -1.7151403707       -2.3800520648
 C         -1.1569100788       -1.2334577573       -1.7845912832
 C          0.0637739239       -1.6896270731       -2.2690699920
 C          1.2546206995       -1.3217286555       -1.6531868471
 C          2.4742635739       -1.7290170906       -2.2379648865
 N          3.4440918636       -2.0407719694       -2.7645522192
 C          1.2273832780       -0.4926180391       -0.5104708650
 N          2.3993209492       -0.1307433102        0.1335174525
 C          3.4113017210       -0.9945100175        0.5295744688
 C          3.4580818586       -2.3784131551        0.4805231590
 C          4.5805527358       -3.0025751753        0.9924521713
 C          5.6236003225       -2.2734623776        1.5558117991
 C          5.5620215881       -0.8965923124        1.6434148872
 C          4.4450427097       -0.2488264210        1.1344274784
 C          4.0384464753        1.1304097882        1.0939138734
 C          4.6395064606        2.3117723265        1.5055375950
 C          3.9716462625        3.5022932617        1.2940478373
 C          2.7301091361        3.5245917441        0.6655934663
 C          2.1128927261        2.3601771304        0.2455253180
 C          2.7672632113        1.1613539355        0.4809525494
 C          0.0037660096       -0.0221807754       -0.0479986115
 C         -1.1908279767       -0.3680969399       -0.6691781057
 N         -2.3935618636        0.1131395391       -0.1785293820
 C         -2.8031230388        0.0675101770        1.1467702634
 C         -2.1628971253       -0.4705047838        2.2520088637
 C         -2.8222920803       -0.4200744564        3.4669032600
 C         -4.0911002198        0.1400956598        3.5816412400
 C         -4.7438703596        0.6524579682        2.4772805835
 C         -4.1005211276        0.6144170899        1.2480636525
 C         -4.4812035578        1.0256034105       -0.0767874353
 C         -5.6081360069        1.6511583638       -0.5914614342
 C         -5.6386462760        1.9515493804       -1.9390409954
 C         -4.5558851876        1.6584226984       -2.7628547866
 C         -3.4227806772        1.0370490257       -2.2713920875
 C         -3.4057433942        0.6962718031       -0.9285012910
 H          0.0870737016       -2.3377592020       -3.1330628405
 H          2.6496802910       -2.9609680901        0.0649956348
 H          4.6445959285       -4.0793915276        0.9566765646
 H          6.4853925903       -2.7972326068        1.9403223782
 H          6.3589126036       -0.3320329559        2.1024474999
 H          5.6112634106        2.2950095717        1.9743630384
 H          4.4202702952        4.4322065801        1.6087984383
 H          2.2378724442        4.4704964707        0.4969295935
 H          1.1600409090        2.3958814884       -0.2615280112
 H         -0.0193376705        0.6258509216        0.8140127195
 H         -1.1885469577       -0.9298224422        2.1752369565
 H         -2.3417363601       -0.8292119740        4.3428581131
 H         -4.5725675640        0.1620692907        4.5473977777
 H         -5.7359983107        1.0684137093        2.5611086412
 H         -6.4368279485        1.9005796815        0.0532002949
 H         -6.5074134555        2.4326883464       -2.3615392205
 H         -4.5971408487        1.9243304213       -3.8080355188
 H         -2.5841880818        0.8349522429       -2.9206689204
  54
        -89.38660031
 N         -3.4364261979       -2.1543130715       -2.6465465310
 C         -2.4614516631       -1.7968179771       -2.1603005344
 C         -1.2424500680       -1.3386477336       -1.6125155806
 C         -0.0532773596       -1.6569350659       -2.2589056838
 C          1.1606511639       -1.1657772458       -1.7917717885
 C          2.3529185647       -1.5690003303       -2.4337143019
 N          3.2937952712       -1.9390727981       -2.9748050729
 C          1.1910131947       -0.3375702659       -0.6493165115
 N          2.3936245108        0.1384883118       -0.1493656776
 C          2.8488843545       -0.0356870178        1.1492349297
 C          2.2439350406       -0.6805848043        2.2160114954
 C          2.9484365568       -0.7586620865        3.4037348200
 C          4.2245622553       -0.2169157561        3.5272799075
 C          4.8374613445        0.4108691714        2.4602554634
 C          4.1495032772        0.5021496716        1.2581653591
 C          4.4811092918        1.0470136378       -0.0313653995
 C          5.5834153192        1.7328490704       -0.5223102477
 C          5.5609819719        2.1658610328       -1.8336205298
 C          4.4535734008        1.9387204047       -2.6458003157
 C          3.3451541589        1.2570681994       -2.1789051375
 C          3.3781480464        0.7933050218       -0.8738358484
 C         -0.0022066472       -0.0261632675       -0.0087148115
 C         -1.2206437592       -0.5094987586       -0.4706061514
 N         -2.3967313595       -0.1435688015        0.1668788214
 C         -3.3991395297       -0.9971444697        0.6013114542
 C         -3.4183719590       -2.3818592953        0.6396595112
 C         -4.5341237578       -2.9933414408        1.1806379404
 C         -5.5972959044       -2.2491653245        1.6840869741
 C         -5.5674708837       -0.8683916729        1.6750784228
 C         -4.4580539953       -0.2324528151        1.1354933474
 C         -4.0818280362        1.1490473412        0.9956046492
 C         -4.7193796057        2.3463797167        1.2902908352
 C         -4.0755841224        3.5306445286        0.9880884366
 C         -2.8182680897        3.5314326037        0.3909618292
 C         -2.1632521754        2.3513816005        0.0889355931
 C         -2.7989958199        1.1620008948        0.4070780324
 H         -0.0727954685       -2.2907561722       -3.1334990214
 H          1.2626343745       -1.1230503961        2.1265598472
 H          2.4994764306       -1.2566488568        4.2498723896
 H          4.7432323190       -0.2998186372        4.4702222626
 H          5.8334663838        0.8159867246        2.5511291713
 H          6.4327510196        1.9291583789        0.1138349012
 H          6.4075114341        2.7015782921       -2.2352809514
 H          4.4554550095        2.3067797570       -3.6604323050
 H          2.4862930469        1.1011013428       -2.8147724602
 H          0.0172283924        0.6070166732        0.8650186533
 H         -2.5935637086       -2.9710517761        0.2671329994
 H         -4.5772948993       -4.0712100992        1.2167006953
 H         -6.4516806561       -2.7637062506        2.0967188220
 H         -6.3831941229       -0.2916120121        2.0831550942
 H         -5.7019218169        2.3462143467        1.7363882062
 H         -4.5553335892        4.4724448736        1.2069100385
 H         -2.3441334276        4.4718880594        0.1536443080
 H         -1.1959500701        2.3644225552       -0.3916201323
