80
 energy: -124.546223189559 gnorm: 0.000039092795 xtb: 6.7.1 (edcfbbe)
O            4.45183943154248        3.60782788538266       -1.72905225977392
C            3.91472178075881        2.58859343264255       -1.31518291231755
C            2.44948876115486        2.46761221091741       -1.20423104606041
C            1.77226711766786        1.25836344329476       -1.38454574827302
C            0.40582258097605        1.18692219214486       -1.23310535463924
C           -0.33541329762298        2.32204702866438       -0.88156518618879
N           -1.70526126234925        2.24432056860194       -0.68193877868715
C           -2.49867672459222        1.36519381709579       -1.43762380590112
C           -2.22972908482591        1.14767287936628       -2.78830311935173
C           -3.03854330936583        0.30853555697302       -3.53130659147395
C           -4.12891416217345       -0.31468691625951       -2.94644671693451
C           -4.39832790850374       -0.10277450763787       -1.60363240511337
C           -3.58920171206876        0.72631061776664       -0.84975345434956
C           -2.32928162052100        3.08890781273105        0.25311792632237
C           -3.56279099706893        3.67143563439468       -0.03137898872579
C           -4.17695359391535        4.48860914007838        0.89893971074905
C           -3.57027215194890        4.74390512563015        2.11814618368700
C           -2.34147159830011        4.17078105028405        2.40353344535922
C           -1.72456451172314        3.34456179357484        1.48305474277084
C            0.33900125094027        3.54163810773491       -0.73739798592603
C            1.70119461359672        3.61170260965477       -0.91216403553912
C            4.72843105854429        1.43360825573235       -0.84721940281267
C            6.01891131907854        1.24923259489237       -1.34513410065802
C            6.81353172090456        0.22200992999679       -0.86884229169656
C            6.33465790107719       -0.63539646923065        0.10850374339861
C            5.04376007746870       -0.47291229973279        0.60244659392000
C            4.48301215168766       -1.37434488333441        1.64875330601426
O            5.13119255735780       -1.74305249335162        2.61486323993376
C            3.07133774720555       -1.73913239963992        1.42248945427341
C            2.17685081506305       -1.82415607785315        2.49044575814864
C            0.84208729617002       -2.08057855402023        2.26932400887340
C            0.36848008835391       -2.31385322508604        0.97271933193527
N           -0.97566766194884       -2.56511191981386        0.73871017047253
C           -1.35867641203675       -3.47116732880717       -0.26526029356646
C           -0.65011576228249       -4.65793534645284       -0.44821361203055
C           -1.03468067496604       -5.55086137188635       -1.43043595849442
C           -2.13120018570496       -5.27998638081262       -2.23342158315717
C           -2.83984746429933       -4.10358492060535       -2.05034173352655
C           -2.45770062525835       -3.19956268754073       -1.07718148373214
C           -1.96256017573992       -1.91643172021699        1.49682246489526
C           -1.80178088462262       -0.58141422259120        1.86475604002787
C           -2.77540704317853        0.05633849813771        2.60989865445727
C           -3.92473540450374       -0.62000232376289        2.98645883313632
C           -4.09259203577836       -1.94426637984113        2.61478542346716
C           -3.11949896662400       -2.59336972189441        1.87880330077424
C            1.27904551903458       -2.29198636873221       -0.09072411961083
C            2.60183323136714       -1.98782730909459        0.12992717509546
C            4.25309540890672        0.57211426901268        0.13505726533133
H            2.32082231106570        0.37120097741846       -1.66076927898195
H           -0.10050235623438        0.24338518656942       -1.36865165408994
H           -1.39301045802706        1.64835520882551       -3.25345185875677
H           -2.82302133982426        0.15259854275322       -4.57814094996857
H           -4.76478754456195       -0.95974565259012       -3.53359828835778
H           -5.24259696435445       -0.58821520563265       -1.13567929561585
H           -3.79663062890582        0.88329327685115        0.19782565105625
H           -4.03386424557884        3.48225057642544       -0.98469202844786
H           -5.13186983312949        4.93615122027565        0.66566068306932
H           -4.05085405414579        5.38597753908204        2.84079008110999
H           -1.86276369156686        4.35994722978161        3.35346023634825
H           -0.77010167002162        2.89281881651196        1.71177065539018
H           -0.22015990376111        4.43339140450605       -0.49674737988995
H            2.21844123058701        4.55460001933382       -0.80885574013960
H            6.38192723091522        1.92641920953787       -2.10457935588299
H            7.81220912930515        0.08994128021292       -1.25709535001138
H            6.94647960889777       -1.43986996595140        0.48959311886352
H            2.54494172752787       -1.66023386880560        3.49283378519880
H            0.15273719030251       -2.11552037249448        3.09976892583538
H            0.19751750849220       -4.87546240704399        0.18547855844524
H           -0.47996394845385       -6.46832117948812       -1.56227534108315
H           -2.43120912312957       -5.98248109321884       -2.99641744303546
H           -3.69328566953172       -3.88338503261153       -2.67393471662788
H           -3.00390849249076       -2.27782357047270       -0.94287187133311
H           -0.91367601426347       -0.04895327950771        1.55710592301815
H           -2.64216049441599        1.09233225144935        2.88520379672141
H           -4.68513964280272       -0.11622228863343        3.56412320493434
H           -4.98422191114402       -2.47947768409936        2.90688892723872
H           -3.24816372260788       -3.62816029934754        1.59728729572958
H            0.92965573837819       -2.49461768011795       -1.09212508529325
H            3.29103435910290       -1.95938301430149       -0.70116808283179
H            3.27783435954318        0.73180765529735        0.56903620717675
