80
 energy: -124.544993011135 gnorm: 0.000049908462 xtb: 6.7.1 (edcfbbe)
O            1.99259490155548       -2.50668345249971       -1.83727115655443
C            2.21598669246242       -1.53400078949665       -1.12515580451418
C            3.57967933994315       -1.08747349019170       -0.81883031498427
C            3.88583913304337       -0.29435282835000        0.29247910951250
C            5.18413392581736        0.07552857115355        0.55424511027399
C            6.23167813690090       -0.33003710635946       -0.28496784839571
N            7.53459269704519        0.04972210904484       -0.02550464065626
C            7.81957717934637        1.26493880759573        0.62245524579883
C            7.10856343616509        2.42119963401215        0.30553271135073
C            7.40550106417795        3.61357722412535        0.93834025425400
C            8.41696810742740        3.67289184282298        1.88361653266301
C            9.13052007938495        2.52701517458909        2.19597091065224
C            8.83554143421251        1.32825750477825        1.57418949041567
C            8.61084237477377       -0.77561747479332       -0.40260258909395
C            9.75898522417240       -0.21741099987329       -0.96050565098738
C           10.82166219580539       -1.02733957567959       -1.31496449933751
C           10.75263417365391       -2.39778124486559       -1.12298344050883
C            9.61259615934882       -2.95597099183159       -0.56708410985572
C            8.54741430591631       -2.15355014105090       -0.20383765956125
C            5.92713133282917       -1.13793337615824       -1.39025591124268
C            4.63005844877237       -1.51174716871838       -1.64170253400626
C            1.08972067095710       -0.75815673360684       -0.53432090379050
C            1.07634988327960        0.63537990760111       -0.53948033974685
C           -0.00323643266645        1.31957108271558       -0.00784530430924
C           -1.08004164863560        0.62953882862970        0.52184258732028
C           -1.08793664516106       -0.76403683385538        0.51248719069833
C           -2.21119408719768       -1.54601334182431        1.10077733401282
O           -1.98446043526009       -2.52266589966799        1.80636151637316
C           -3.57642938721377       -1.09977769837618        0.80065500358492
C           -4.62339126444472       -1.52698932366707        1.62628646912965
C           -5.92143167715919       -1.15187255300812        1.38174638711362
C           -6.23054138544936       -0.34009231406364        0.28058131900469
N           -7.53440401471416        0.04141553752806        0.02821384805683
C           -7.82146746382795        1.25910647643719       -0.61424320476743
C           -8.84223401606354        1.32648767383714       -1.56056633937750
C           -9.13983481723614        2.52765157508211       -2.17640635065460
C           -8.42405802816644        3.67200699342824       -1.86356646498459
C           -7.40756869057953        3.60860800636991       -0.92397141596340
C           -7.10803302734869        2.41378823934895       -0.29698867995862
C           -8.60951041216837       -0.78409440185101        0.40797791936042
C           -9.75563313738857       -0.22632854095036        0.97051658562220
C          -10.81724871670063       -1.03640953333295        1.32777354608403
C          -10.74907098020711       -2.40669335743544        1.13438802943262
C           -9.61106977616668       -2.96446467822603        0.57392243341343
C           -8.54713473896553       -2.16183679948826        0.20749925882313
C           -5.18656364969538        0.06766662674644       -0.56197919684663
C           -3.88720377608239       -0.30319393788714       -0.30687024187375
C            0.00226565651095       -1.44804317768398       -0.01196318994146
H            3.10262702953509        0.00096380099826        0.97435301062047
H            5.40699331545642        0.67075547530845        1.42713112061512
H            6.32917601362709        2.37862083677560       -0.44117200344784
H            6.84981054653038        4.50403740602240        0.68348363143427
H            8.64882939515393        4.60706189789575        2.37258329553494
H            9.91889601826918        2.56420586464896        2.93332842496460
H            9.38858783501919        0.43417874123099        1.82204534694338
H            9.81088901590305        0.85054451870814       -1.11391056339706
H           11.70619569373192       -0.58562282009316       -1.74971793015536
H           11.58315536869084       -3.02788590411495       -1.40348162157257
H            9.55389024302029       -4.02258468536163       -0.40699484784056
H            7.66252114821438       -2.58745498938502        0.23882227369629
H            6.71943688808246       -1.45693743482941       -2.05059825254260
H            4.39154844258454       -2.12742882218663       -2.49701560121830
H            1.90428361136837        1.17698618075779       -0.97209187837176
H           -0.00539989020469        2.39926750026459       -0.00631947187330
H           -1.91004374781780        1.16658466069343        0.95616717710062
H           -4.38143552905364       -2.14580772805294        2.47835893200374
H           -6.71087332263553       -1.47287831937344        2.04453242601605
H           -9.39712048117983        0.43365258472135       -1.80877143325917
H           -9.93219572794666        2.56799426734236       -2.90931289676375
H           -8.65811224202269        4.60813549973456       -2.34773189778732
H           -6.84995110641774        4.49780284897540       -0.66891007157802
H           -6.32471960555950        2.36815140606925        0.44541416449232
H           -9.80689073467520        0.84146365317798        1.12524845782984
H          -11.70021930961594       -0.59490482921928        1.76590676333152
H          -11.57859874196264       -3.03697934284731        1.41738771911719
H           -9.55291862766257       -4.03095957579851        0.41284585933300
H           -7.66400472792351       -2.59552816291925       -0.23886681045581
H           -5.41301171185264        0.66567611258629       -1.43203453530444
H           -3.10685179328504       -0.00591492151499       -0.99116791427243
H            0.00436938963464       -2.52898077127953       -0.01349987423608
