80
 energy: -124.468224105684 gnorm: 0.000062663323 xtb: 6.7.1 (edcfbbe)
O            4.30137678734420       -3.66788025353607        1.86564736808621
C            3.80597780607339       -2.61516635134422        1.39634858152485
C            2.35285928610572       -2.47361477595182        1.28373130601007
C            1.68359366207583       -1.24159836402113        1.40432143122923
C            0.32531700277802       -1.15482748663597        1.22313581714423
C           -0.43272904774359       -2.29950054136110        0.93238255966574
N           -1.80543178164296       -2.20361596906678        0.69571658641581
C           -2.58046072860469       -1.30660364125575        1.43051564574637
C           -2.28595164782079       -1.05299150098833        2.77427986297685
C           -3.06578540835356       -0.17562136503956        3.50081604499442
C           -4.14730544119333        0.45976693464569        2.90834219526413
C           -4.43813319653924        0.21934484219741        1.57287369705550
C           -3.66346748916913       -0.65235575663618        0.83408729121751
C           -2.39842336446618       -3.02624334718090       -0.26095982978767
C           -3.69324783683047       -3.52084772045314       -0.07164067266077
C           -4.26912293198695       -4.33986125404763       -1.02162556044347
C           -3.57069532271260       -4.68450447354426       -2.16992826440131
C           -2.28359419677620       -4.20295659336461       -2.36075094365409
C           -1.69826447747333       -3.37966946530478       -1.41978854395760
C            0.21520377104110       -3.54525252719843        0.89486346216703
C            1.57168465633620       -3.62642943958838        1.07929000432287
C            4.66475429146375       -1.53274008508021        0.90896170504570
C            6.02244500788129       -1.49800273108135        1.28622031410337
C            6.87434037363947       -0.55180491751481        0.75365178548089
C            6.41170175079964        0.39125955384413       -0.14885414135779
C            5.06156288831978        0.38407694596026       -0.52932782237160
C            4.53722992872502        1.33557671490064       -1.52533411977808
O            5.22290245250182        1.77651554106462       -2.45827184136448
C            3.12376332126732        1.71329400353119       -1.33950265851897
C            2.26359157630287        1.85275359646846       -2.43457770644796
C            0.92813259374995        2.12846212726513       -2.25045358916319
C            0.41798555205545        2.31834558198421       -0.95964942313888
N           -0.94142709036268        2.57632430917674       -0.75868987465896
C           -1.32822715485250        3.52918913452341        0.18544459334518
C           -0.56476981635638        4.68579888835392        0.36938438766236
C           -0.94887453218041        5.62721234918675        1.30332074450120
C           -2.09221047924049        5.43475456471210        2.06512338530721
C           -2.84989601741783        4.28637615471233        1.88885712204899
C           -2.47543001250530        3.33619935488394        0.95993959257170
C           -1.89425650194428        1.87511958927621       -1.49592090684641
C           -1.66297428724957        0.54466759412541       -1.85823268354063
C           -2.60216089961536       -0.14511146622603       -2.59876271228459
C           -3.78388303336267        0.47092549137365       -2.98395878165490
C           -4.01916452654182        1.79024672917356       -2.62554460592755
C           -3.08564959709801        2.49201399203645       -1.88961400075149
C            1.28827786549136        2.24989224449042        0.13488191079085
C            2.61420649579432        1.94063918506363       -0.05328197552590
C            4.21420694765766       -0.59122764383901       -0.01413933511794
H            2.24440688207751       -0.35501262091752        1.65361940269562
H           -0.16584053273081       -0.19520892380963        1.28497018747468
H           -1.46030201216339       -1.56765099050602        3.24272460156357
H           -2.83603487114227        0.00300812926295        4.54041832088911
H           -4.75890060515357        1.13691123568679        3.48414700338286
H           -5.27254272523178        0.71755592981750        1.10211377300727
H           -3.87598791237350       -0.82111841276217       -0.21033834351917
H           -4.22882724212925       -3.27694679335243        0.83336203915669
H           -5.26564076408344       -4.72260765123442       -0.86059837527210
H           -4.02376057725664       -5.32754205259145       -2.90868352309237
H           -1.73473147261776       -4.46334902534731       -3.25360969093260
H           -0.70214592169943       -2.99344385019101       -1.57729436758179
H           -0.36481776313758       -4.44172094387524        0.73193739902958
H            2.07626746753311       -4.58125005710371        1.05431209067342
H            6.37845758027403       -2.24025477446557        1.98568171433758
H            7.91580758679225       -0.54726202645041        1.04381249227334
H            7.07101411578369        1.13424481133686       -0.57265668982501
H            2.66718708241908        1.71784204865852       -3.42742860756894
H            0.26773401671942        2.21463062701374       -3.10072452580936
H            0.31616959529677        4.84292963378651       -0.23512790081968
H           -0.35667408687311        6.52091888354168        1.43124668964920
H           -2.38893937529355        6.17512188983454        2.79219802660203
H           -3.73484691231476        4.12712467126000        2.48562070599997
H           -3.05200297516471        2.43151375261198        0.83993456533382
H           -0.75087481391235        0.06045655963917       -1.54262349358772
H           -2.41648732616981       -1.17387764259926       -2.86789440926452
H           -4.51461800605776       -0.07420957142413       -3.56148782378142
H           -4.93177387317631        2.27903048288367       -2.93177655454951
H           -3.25884532474490        3.52601254884879       -1.63228081581490
H            0.90542899017923        2.41881119384964        1.13061873650672
H            3.28009596608109        1.87899992584876        0.79455612948996
H            3.20606766972148       -0.65677862799625       -0.39585350655340
