  80
       -124.41573003
 O          4.2400454382       -3.5581845941        1.8449354111
 C          3.7547377153       -2.5122470727        1.3635619249
 C          2.3108406297       -2.3501427623        1.2349187728
 C          1.6550520007       -1.1037529117        1.2679896140
 C          0.2974149962       -1.0148618894        1.0871186955
 C         -0.4722979988       -2.1686807781        0.8754668167
 N         -1.8460838211       -2.0828902457        0.6276950185
 C         -2.6313463620       -1.1727620453        1.3262140526
 C         -2.3124475646       -0.8269400012        2.6437123877
 C         -3.1124490107        0.0518913189        3.3453275642
 C         -4.2402890099        0.6019719910        2.7546690108
 C         -4.5506638743        0.2793798010        1.4407762831
 C         -3.7560242169       -0.5945655387        0.7274352425
 C         -2.4186819437       -2.9517320524       -0.2978758536
 C         -3.7115421950       -3.4505446291       -0.1121420264
 C         -4.2618964038       -4.3169438894       -1.0345177363
 C         -3.5386843459       -4.7091944447       -2.1509458534
 C         -2.2505926825       -4.2294129800       -2.3347727510
 C         -1.6915000365       -3.3591139324       -1.4213475509
 C          0.1622329285       -3.4213521766        0.9225128261
 C          1.5155965568       -3.5083053007        1.1113970560
 C          4.6369271438       -1.4454484036        0.8685217136
 C          5.9765638927       -1.3996119934        1.2968210076
 C          6.8451456022       -0.4636501936        0.7733310882
 C          6.4144361527        0.4529502518       -0.1722113333
 C          5.0829282237        0.4258002171       -0.6010529345
 C          4.5759473557        1.3721756615       -1.6214751672
 O          5.2574565656        1.7882116790       -2.5522810128
 C          3.1614651479        1.7524469315       -1.4140717451
 C          2.2679268242        1.8439999714       -2.4837548251
 C          0.9295298646        2.0781806126       -2.2604143504
 C          0.4532361372        2.2649539872       -0.9582603835
 N         -0.9081379013        2.4592044315       -0.7081347249
 C         -1.2853741005        3.3836769683        0.2711803970
 C         -0.5907201891        4.5878241906        0.4007725259
 C         -0.9542115307        5.4949769219        1.3760460818
 C         -2.0083428122        5.2185867453        2.2332402163
 C         -2.6979576705        4.0228230903        2.1087167650
 C         -2.3431260635        3.1075317372        1.1375365439
 C         -1.8643108853        1.7260628354       -1.4032189988
 C         -1.5768318477        0.4365539636       -1.8602624859
 C         -2.5215540256       -0.2739151411       -2.5729813092
 C         -3.7702387603        0.2723978852       -2.8275096293
 C         -4.0654244783        1.5464056695       -2.3667416716
 C         -3.1238593714        2.2722649144       -1.6661221643
 C          1.3592222858        2.2572748010        0.1070034936
 C          2.6885056418        1.9914750907       -0.1183598174
 C          4.2155090105       -0.5382422873       -0.1001396269
 H          2.2231164211       -0.2084956690        1.4557407303
 H         -0.1873909206       -0.0501129761        1.0920474001
 H         -1.4510793088       -1.2759689111        3.1141931745
 H         -2.8621397132        0.2985479751        4.3659149347
 H         -4.8705450690        1.2780559529        3.3110264653
 H         -5.4152334558        0.7177711553        0.9648397757
 H         -3.9888150637       -0.8254167872       -0.2998627797
 H         -4.2679217735       -3.1704888603        0.7698439761
 H         -5.2587288640       -4.6991377337       -0.8749657540
 H         -3.9724666586       -5.3882679162       -2.8681059081
 H         -1.6793883864       -4.5302516713       -3.2003383995
 H         -0.6931797985       -2.9775934077       -1.5705759400
 H         -0.4321370018       -4.3171089392        0.8194361571
 H          2.0070834516       -4.4675793130        1.1529334368
 H          6.3090434747       -2.1173529420        2.0299121889
 H          7.8734905724       -0.4470476090        1.1039154549
 H          7.0868989032        1.1880157396       -0.5857442733
 H          2.6402416996        1.7024338652       -3.4867950720
 H          0.2376269689        2.1241777580       -3.0881194065
 H          0.2244199039        4.8041844540       -0.2734837210
 H         -0.4152487547        6.4260130099        1.4633478817
 H         -2.2885560948        5.9302696960        2.9941329739
 H         -3.5130564732        3.7943137002        2.7786522653
 H         -2.8687123283        2.1698911684        1.0509609652
 H         -0.6142763425       -0.0012917440       -1.6461123973
 H         -2.2885736873       -1.2683945883       -2.9223226168
 H         -4.5051779404       -0.2911370106       -3.3814439356
 H         -5.0320062992        1.9833663657       -2.5673929062
 H         -3.3474011832        3.2748459324       -1.3338909237
 H          1.0003153174        2.4343884968        1.1098587517
 H          3.3817102307        1.9680646905        0.7078161597
 H          3.2255507656       -0.6181452747       -0.5175814807
