94
 energy: -127.856138938616 gnorm: 0.000042354680 xtb: 6.7.1 (edcfbbe)
C           -2.11029796427475       -1.69069004702140        5.78958583994615
C           -2.08666838258016       -1.49385561012437        4.30397599354258
C           -1.81529425409865       -0.24117515328996        3.76215625753868
C           -1.79663411658759       -0.03964040422707        2.39886372694645
C           -2.06315511867320       -1.09480149079250        1.52172891323153
N           -2.00227854165421       -0.88260218318342        0.13236124852030
C           -2.73245356988317        0.15157846299993       -0.45845123722178
C           -2.54126476270365        0.43761458553339       -1.81255491653279
C           -3.20256253481956        1.48868513202400       -2.41215999675364
C           -4.08905236249394        2.28548006706777       -1.69824223528686
C           -4.77250181747626        3.45082925426737       -2.34745114982915
C           -4.31106087879262        1.97151367978673       -0.36432091002490
C           -3.65593989084809        0.92178235876445        0.24914382964577
C           -1.74542944410624       -2.02439139146537       -0.69158798481893
C           -2.88296866410506       -2.72135634673338       -1.10031775688753
C           -2.80600760409965       -3.85870996358579       -1.87411216136040
C           -1.55560408187489       -4.30753216777845       -2.25409362318785
C           -0.42748529148446       -3.60417078940708       -1.87705575482167
C           -0.46828141326775       -2.44987569999029       -1.09028364248553
C            0.82613888514297       -1.66371040594902       -0.83069307209380
C            0.82410716287529       -0.49349485619940       -1.82479058109964
C            0.42034276459066       -0.79471489439783       -3.12905726381769
C            0.32005965496779        0.15264096532227       -4.12808592222891
C            0.61698558169954        1.47447207410441       -3.84760829018147
C            1.06836665621913        1.79363514219031       -2.58686670010913
C            1.20798565146965        0.83199603027206       -1.58296184797226
N            1.78226686240716        1.29881624392684       -0.36789275108164
C            3.10779501910247        0.95453725266835       -0.09678078784940
C            3.96570865484959        0.55015994102297       -1.11871361269755
C            5.25984053574272        0.15349044327243       -0.83504170492082
C            5.74280405886450        0.14770380295445        0.46509320798301
C            7.14494994408789       -0.27789977355175        0.77963553626369
C            4.88332046506598        0.54899376282134        1.48367014517886
C            3.58901382316771        0.94042753179128        1.21673550825473
C            1.14748550738654        2.36985787174780        0.26298046626316
C           -0.24353644214907        2.45522091882477        0.21031372527206
C           -0.91110292856869        3.49868546890775        0.81900430181686
C           -0.22010421210946        4.49204876293307        1.50016333922556
C           -0.94178196973650        5.61188818161512        2.18735964516944
C            1.16762901296359        4.41700033617887        1.53020743779439
C            1.84758410054564        3.38314130254033        0.91791681226508
C            0.93697541012968       -1.25681435021513        0.64434326454220
C            0.97033976898501       -2.48810789194346        1.54440004768301
C            2.25288208417158       -3.26495836741510        1.27060975672263
C            2.28898869110423       -3.68215728505243       -0.19510101387710
C            2.11231345903397       -2.47658403154689       -1.11873393892119
C           -2.32541191012470       -2.35107381218170        2.06013796914382
C           -2.33553216621068       -2.54086539783137        3.43035162613330
H           -1.21242157086859       -1.27596628514595        6.24524627981060
H           -2.17471948120260       -2.74641622059727        6.04101951007511
H           -2.96978253686670       -1.18045906717164        6.22503467032497
H           -1.60444138728113        0.58889408527000        4.42160108401819
H           -1.56052668348473        0.93752488665228        2.00357425467476
H           -1.86135164026746       -0.16590884236004       -2.39259372109360
H           -3.02108570619442        1.69392768243502       -3.45761244412530
H           -5.03389126936221        3.22064160008404       -3.37833381888347
H           -4.10907612566995        4.31690872202423       -2.35596472290634
H           -5.67661219740886        3.72197536274337       -1.80692715069378
H           -5.01922913933002        2.55351416223087        0.20959671390256
H           -3.87249208269286        0.69371146630490        1.28176379811359
H           -3.84627132618689       -2.34061176729477       -0.78918199503402
H           -3.70143004531788       -4.38256118177906       -2.17244355354389
H           -1.45264347569060       -5.19596169289740       -2.85973593683473
H            0.51812069162762       -3.97367334979681       -2.23658129836591
H            0.15546998870492       -1.81295912661760       -3.37056721120969
H           -0.00211950239224       -0.14138093314999       -5.11594096793749
H            0.52326323376064        2.23789058843282       -4.60491360794634
H            1.34586864258449        2.81152383701309       -2.35122929611692
H            3.61635265104952        0.54996985854997       -2.14091695964106
H            5.90431945075056       -0.15450342605235       -1.64636614686574
H            7.70495893331363        0.54988863353910        1.21426809449921
H            7.14346850178068       -1.09293110707112        1.50271370740045
H            7.66077266993577       -0.61018519175165       -0.11777321438926
H            5.23368580129095        0.54148650681215        2.50621053632664
H            2.93163624353818        1.22123726560679        2.02639119907714
H           -0.79971759316069        1.70443669632769       -0.32782520265109
H           -1.98998460621972        3.53408687379847        0.75900019705092
H           -1.95825722984718        5.70427794131460        1.81243016067081
H           -0.42283559656932        6.55671057862853        2.03626998305886
H           -0.99058699723600        5.42627076649060        3.26115637274308
H            1.72999415836192        5.19257585594130        2.03141770351067
H            2.92733928282422        3.37314679308614        0.93059701874179
H            1.88007101762346       -0.74258786439443        0.80074295709410
H            0.13953248969191       -0.58061725936251        0.92843603094646
H            0.93201272541630       -2.17342932541815        2.58934429869196
H            0.10643362592540       -3.12854398610251        1.35895154221319
H            3.11503691702673       -2.63135345455103        1.49488234633045
H            2.30932792673897       -4.14916970933467        1.90914543165201
H            3.24306062582694       -4.16414935358507       -0.42324020876303
H            1.49715668500867       -4.41342645773680       -0.36396568353314
H            2.95560805883491       -1.79882154621735       -0.96216966515564
H            2.15566014896304       -2.78737377142430       -2.16428279286710
H           -2.52733192854648       -3.18783207600107        1.40779284152737
H           -2.54538919041149       -3.52616579597637        3.82238600976381
