94
 energy: -127.844831973113 gnorm: 0.000062263519 xtb: 6.7.1 (edcfbbe)
C           -3.61324947324952        5.17096115381104        2.35532903803914
C           -3.30193473633467        3.88109276924415        1.65805875441604
C           -4.29325181097576        3.19386463894223        0.96658585699511
C           -4.02043726299984        2.01343832310508        0.30635587811477
C           -2.73625993695867        1.46756926667028        0.33008990659515
N           -2.42622603614243        0.25841025690309       -0.32251602945144
C           -3.48270634320635       -0.62106455576979       -0.59703866844339
C           -3.64896076419028       -1.21981299180826       -1.84318790695314
C           -4.67640754263667       -2.12112797839624       -2.05595227489040
C           -5.56829840329639       -2.44941541793919       -1.04651895030385
C           -6.68887483716195       -3.41855585035358       -1.27394002061122
C           -5.39934610673906       -1.84857386386107        0.19775448502321
C           -4.37565818870282       -0.95522934507443        0.42525590036729
C           -1.34691072707747        0.30514028271199       -1.26087617875151
C           -1.45217872784639        1.28187774713100       -2.25098004054000
C           -0.51323778651215        1.40805817856394       -3.25318389572746
C            0.54651262625341        0.52274997726887       -3.28028157058542
C            0.66766801399786       -0.43822358013737       -2.29365438914260
C           -0.24446673969024       -0.56886510758834       -1.24953791208479
C            0.00573513616741       -1.58595207609830       -0.12761499005899
C            0.29738517044821       -0.73122662833270        1.11085544565226
C           -0.56269102935421       -0.75152077860298        2.20704838025280
C           -0.39586937242389        0.06121557721253        3.31282597837877
C            0.65108579040356        0.96170338706126        3.35341305408189
C            1.52341420902435        1.00435979168934        2.28599337046676
C            1.37693521693227        0.17021862673221        1.17728657291429
N            2.38994932023664        0.30320509783731        0.17358283756420
C            2.59158094462186        1.58874299738683       -0.35418603755912
C            1.49516627047265        2.36961688614128       -0.71085495934412
C            1.66514220990267        3.63053546621064       -1.24469897936102
C            2.93129900097766        4.16337460153555       -1.44373401789002
C            3.11899060802635        5.52021261472324       -2.05256278605007
C            4.02441301562714        3.39150782752363       -1.07058567198126
C            3.86515371217846        2.13255223948794       -0.52728189286715
C            3.50024218292658       -0.55253513517472        0.26413758175600
C            3.85977393974619       -1.17991815593552        1.45376489547205
C            4.94449063538889       -2.03891359601116        1.49320643220612
C            5.70223262241184       -2.29445847613555        0.36133288068827
C            6.87737200514452       -3.22370061747853        0.39756199736048
C            5.34430925311541       -1.65982702389827       -0.82547229384681
C            4.26462259418188       -0.80632898142486       -0.87962212026863
C           -1.22872557034898       -2.51785293339678       -0.04017004832405
C           -0.94673798912012       -3.92256090563022        0.51354325444518
C            0.21398261291032       -3.91929681246571        1.49622479763879
C            1.48129397376992       -3.45074376136337        0.77953846738164
C            1.17735948697130       -2.54147045891149       -0.41574587976208
C           -1.74096598183190        2.15905541651598        1.01330345810782
C           -2.02212004047054        3.34517627775629        1.66247921429584
H           -4.53018116879390        5.08334986425644        2.93561796499147
H           -3.75594128440847        5.96927164960512        1.62629552692805
H           -2.80241899732988        5.45726348042191        3.02056749879420
H           -5.29576026131929        3.59732686006138        0.93451049055886
H           -4.80751561847725        1.51277795262033       -0.23883201413282
H           -2.97315707611114       -0.97717905607718       -2.65033836006675
H           -4.78604855537812       -2.57108292564415       -3.03276586555928
H           -6.64593241986966       -4.22937735171896       -0.54765186596298
H           -6.63818188128771       -3.84365404444309       -2.27318185343386
H           -7.65148566983394       -2.92048359090099       -1.15854471254507
H           -6.07911466468453       -2.09362446467261        1.00170687282276
H           -4.25202612447918       -0.50451688658437        1.39967637893716
H           -2.30507442289780        1.94617052446723       -2.21953917813617
H           -0.61717266513344        2.17470391094733       -4.00584888454214
H            1.28752889806381        0.58107524442409       -4.06343167418572
H            1.51212010154523       -1.10291425054094       -2.34943607257724
H           -1.40808193737209       -1.41837812587626        2.21240148676231
H           -1.09414832415052       -0.00359498635975        4.13386252455926
H            0.79135422984727        1.61531329860535        4.20100733965334
H            2.35525588788829        1.69582444333921        2.29235620723515
H            0.50104621085495        1.98327965527623       -0.57483877251804
H            0.79066014855043        4.20651086616987       -1.51226386383206
H            3.29477787799270        5.42937155010638       -3.12537506292431
H            2.23441266057392        6.13569354073521       -1.90650517184867
H            3.97751749370539        6.02588915660649       -1.61517336850534
H            5.02274149556512        3.78795890939458       -1.19385503933549
H            4.73857189787863        1.57434797259793       -0.22390001401166
H            3.29787825808691       -0.98371562288323        2.35546759750235
H            5.20569182571950       -2.51199286063629        2.42940708541426
H            7.03299170843434       -3.61461579836324        1.39987539897274
H            7.78270695710955       -2.70654515231062        0.08130180791415
H            6.71984285408551       -4.06163965306710       -0.28103178059360
H            5.92141852746224       -1.84460216152470       -1.72048557962830
H            3.99570135166799       -0.32332179142613       -1.80804194065968
H           -2.02206305573203       -2.05991117704442        0.53903126884544
H           -1.61529749095518       -2.63066416906671       -1.05567895789396
H           -1.85083154619786       -4.30173026714529        0.99443135093785
H           -0.70662662107011       -4.60686828715714       -0.30295759131132
H           -0.01281490891925       -3.25377587045989        2.32908646739878
H            0.36101118472394       -4.92006230333259        1.90721790737942
H            2.12487361620666       -2.92168907733522        1.48323921031597
H            2.04568872807009       -4.31098891726178        0.41257328787185
H            2.09109968700170       -2.01105087336301       -0.65864531105418
H            0.90406419100197       -3.15061657447954       -1.28007252997575
H           -0.74313610925798        1.75916379149812        1.04725006516569
H           -1.22653813293737        3.85583819809562        2.18618080290982
