32
 energy: -58.506119047563 gnorm: 0.000157215018 xtb: 6.7.1 (edcfbbe)
N            6.03593963803440        1.99337588238677        0.00170523852818
C            5.04751404008041        1.40830671762635        0.00091439554030
C            3.82777767591553        0.70335362481488        0.00002172192494
C            2.61842425785453        1.40120894406058        0.00114888198927
C            1.39839372210958        0.73056837167693        0.00058160984066
N            0.23194683673190        1.36548250490357        0.00140707573367
C           -0.90970192782179        0.72136777664737        0.00120594409689
C           -0.90968285937507       -0.72141119018818        0.00021598367518
N            0.23197629326868       -1.36550346971919       -0.00089232912603
C            1.39841508792085       -0.73056009801113       -0.00091671869770
C            2.61845580584309       -1.40117019935352       -0.00229916206760
C            3.82779819062482       -0.70328607547970       -0.00192912304807
C            5.04755563177438       -1.40819600647682       -0.00355630437760
N            6.03605531127593       -1.99320378006518       -0.00498170544485
C           -2.28132746044219       -1.17124180285028        0.00069220116074
C           -2.90918134539184       -2.39613988840509        0.00048623818776
C           -4.31650568323559       -2.41601042720043        0.00134515476607
C           -5.08479726056194       -1.27468729868430        0.00227777576182
C           -4.46935142234827       -0.00005901448465        0.00247024173815
C           -5.08482330845244        1.27455703438608        0.00331371022871
C           -4.31655423980372        2.41589538526874        0.00342851547159
C           -2.90923019908618        2.39605362310391        0.00281772413937
C           -2.28135032894944        1.17116885301860        0.00199671260854
C           -3.07609875675814       -0.00004489629715        0.00174151857814
H            2.61609528621615        2.47993226914234        0.00247299358130
H            2.61615756299686       -2.47989379945874       -0.00360603187651
H           -2.35144152553610       -3.31985824849138       -0.00025950169919
H           -4.80691845802283       -3.37851502761313        0.00125102588337
H           -6.16213835537395       -1.34623240779780        0.00288590514450
H           -6.16216580796570        1.34607978141234        0.00384728917441
H           -4.80698578220052        3.37839037104612        0.00402188397072
H           -2.35150682583337        3.31978222462223        0.00298206726338
