32
 energy: -58.561137507463 gnorm: 0.000041870667 xtb: 6.7.1 (edcfbbe)
N            6.68463200876246        1.98300895613930       -0.00040294977974
C            5.69217616750210        1.40865113713503       -0.00018716536956
C            4.46163097116795        0.71192460981150       -0.00002268762176
C            3.27100702204718        1.40607395829389        0.00005160708223
C            2.04898896164385        0.71381596998865        0.00009414384751
N            0.89498975323060        1.43017519880290        0.00013899124186
C           -0.20306186481286        0.72976331562842        0.00008677128580
C           -0.20307015219098       -0.72976112082571        0.00001144128206
N            0.89497364693819       -1.43018522821993       -0.00001880473710
C            2.04898089233474       -0.71383895668540        0.00002820164663
C            3.27099069556751       -1.40611207687030        0.00002467868148
C            4.46162306334983       -0.71197730321767        0.00002344348113
C            5.69216424120913       -1.40871380978197       -0.00000660003837
N            6.68462623564009       -1.98307844508578        0.00001244230645
C           -1.58267766704511       -1.17784053331324       -0.00000423967052
C           -2.21563047545696       -2.39842299783737       -0.00001617277809
C           -3.62221249504821       -2.41763480327576       -0.00005510739441
C           -4.38374195624314       -1.27145954267767       -0.00007260182756
C           -3.76556810140941        0.00002115531809       -0.00000693298458
C           -4.38372737563005        1.27150891698197        0.00004461152951
C           -3.62218487499294        2.41767551645722        0.00006978141528
C           -2.21560312145181        2.39844771255112        0.00007813785230
C           -1.58266436882115        1.17785806134217        0.00007440590902
C           -2.36756309175958        0.00001320681993        0.00001785578215
H            3.25579721665896        2.48543953708632        0.00005715476921
H            3.25576564096329       -2.48547736052267        0.00001588191607
H           -1.65540025234698       -3.32055121718473       -0.00001577432210
H           -4.11824396931550       -3.37713165587938       -0.00009164455999
H           -5.46172289328300       -1.33717954856826       -0.00013009756677
H           -5.46170754765558        1.33724108750836        0.00007348787545
H           -4.11820535553849        3.37717801676630        0.00004827146577
H           -1.65536195400538        3.32056924332166        0.00008046928236
