108
 energy: -164.163867647452 gnorm: 0.000045641742 xtb: 6.7.1 (edcfbbe)
C            2.71822703854721      -10.57956207126866       -2.83827264383037
C            2.66349459467280       -9.87123556305260       -1.48996473159771
C            2.27491863515746       -8.40229299846705       -1.64454377170295
C            2.31884821655644       -7.61835596841865       -0.33297456331025
C            1.23368130169846       -8.04291681075357        0.65417679392166
C            1.26554986913796       -7.21196241710962        1.93740836529294
N            0.99777436505486       -5.81379490408582        1.68171602983972
C            1.96099386119526       -4.82359951680559        1.69748168354434
O            3.12507013649496       -5.00030257474243        1.95798550890764
C            1.25797467755980       -3.55491488305973        1.33786783963775
C            1.98370530037658       -2.31129950973814        1.16022120688458
C            3.08557700352932       -2.01143265629420        1.96381348805473
C            3.78063881700632       -0.83342104572159        1.78641569144721
C            3.41548899545383        0.07241555744049        0.79164159698716
C            4.16046137748210        1.32279703491173        0.60435827685336
C            4.44965544835599        1.79718118431649       -0.67421569700518
C            5.15177791754785        2.97142540581169       -0.85290944579895
C            5.58355615642783        3.70390100130688        0.25002665083230
N            6.29611145360010        4.89560213581731        0.07265864327011
C            6.01139580906065        6.10526951344833        0.67585294535442
C            4.96909572286425        6.44563240953284        1.52609126582990
C            4.89877589909896        7.75247993939384        1.96935305433919
C            5.83376323745283        8.70647313315988        1.57396735561414
C            6.85846670681385        8.37968968363589        0.70858220803321
C            6.95014578476184        7.07245907989984        0.24933406336363
C            7.84635479112055        6.40250816362613       -0.65099882094516
C            8.96492587788504        6.81139637680637       -1.36502216994165
C            9.62998071422726        5.88331245041654       -2.14091560500533
C            9.20180156817970        4.55887251006463       -2.19781090585826
C            8.09176260668048        4.12821989292334       -1.49668882949749
C            7.40457478551508        5.06223847141147       -0.73479613287761
C            5.29926117130527        3.23827661494527        1.53134502183649
C            4.59708466999237        2.06295317260843        1.70215413892008
C            2.32804135582849       -0.24089525828474       -0.02556345872310
C            1.62012312968887       -1.40784310134619        0.15695330161643
C           -0.05776452493115       -3.83762225833023        1.16304494849441
C           -1.18404302193291       -2.95724015768088        0.91688502264979
C           -1.22597790821420       -1.67621453478243        1.47572923651565
C           -2.31135152719975       -0.85525202263721        1.26622344032190
C           -3.38862426320601       -1.27688034753115        0.48483873590217
C           -4.53899982408139       -0.39564418300116        0.25406063207703
C           -5.15065264649374       -0.33480866348757       -0.99733729377798
C           -6.23216662571195        0.49267527608527       -1.21903061937309
C           -6.73063820382547        1.28488751117685       -0.18779187970489
N           -7.82567393211011        2.12788792869535       -0.40978041076068
C           -7.95393257172120        3.02897936985255       -1.44905092742964
C           -7.05632157063728        3.34956387558597       -2.45735958311851
C           -7.42734118358542        4.32200447390784       -3.36620004130574
C           -8.65641630828384        4.97149879820779       -3.27612786644870
C           -9.54291716914065        4.67480199714144       -2.26036374817275
C           -9.19246182946656        3.70093602982388       -1.33466426382248
C           -9.83993866708523        3.16829801107778       -0.16860987378322
C          -11.06447017510711        3.41257128241081        0.43887835857691
C          -11.39893241816123        2.69046560483176        1.56685599676054
C          -10.53684376280587        1.72396432564453        2.08004814789268
C           -9.31337468815785        1.46299438075087        1.49329985957611
C           -8.96066143988531        2.20357127700603        0.37424623413816
C           -6.12725806686514        1.23015346275571        1.06617544058661
C           -5.04648189424577        0.39971189029236        1.28047298077858
C           -3.34744058339477       -2.55692648607022       -0.06592222111810
C           -2.26973419002160       -3.38946426899622        0.15241265733363
C           -0.24694617647060       -5.30705616393553        1.36401788909886
O           -1.25954780374784       -5.95834871406947        1.29548955182666
H            2.99181113989079      -11.62448039101024       -2.71176018800259
H            3.45289832759759      -10.10886470577606       -3.48818088902230
H            1.74916837294080      -10.53593600132485       -3.33085239572252
H            1.94083470602748      -10.38094829898382       -0.85076094287651
H            3.64128060482527       -9.93512941562151       -1.00709994689667
H            1.27072526736314       -8.33711730321649       -2.07047042596367
H            2.96365097298788       -7.93363728119494       -2.35186347899931
H            3.29943805386788       -7.74145096451620        0.13242052568952
H            2.19689526689205       -6.55579671600052       -0.56016269940452
H            1.36829571168449       -9.08841240861776        0.93220795213999
H            0.25037223595699       -7.93838523622377        0.19114964938419
H            0.50891753918231       -7.57961266031319        2.63647426652183
H            2.25316294105720       -7.26143818204596        2.40254283815357
H            3.38911077219123       -2.70567929916772        2.73108079228060
H            4.63551008322640       -0.62106409526751        2.41128041552875
H            4.13382991088844        1.22998883812393       -1.53727334783071
H            5.35902632091125        3.33653423370463       -1.84774214362215
H            4.22839839065319        5.71868715299387        1.82378858210177
H            4.09828841139519        8.04149925976029        2.63444651906041
H            5.74571816051692        9.71679926540385        1.94487407447193
H            7.57352073091917        9.12251025911515        0.38861430374523
H            9.30622841999086        7.83396550216576       -1.30713539665701
H           10.50080497750556        6.18090718837653       -2.70586203220879
H            9.75205127995330        3.85136738735441       -2.80050880603618
H            7.77961032498304        3.09531761327405       -1.53288576187688
H            5.64505115475653        3.79622918675115        2.38867943254486
H            4.37087005994899        1.71922401732161        2.70068895734110
H            2.02568219295720        0.45051163541604       -0.79838111005144
H            0.78484958091238       -1.63890210190188       -0.48720492581409
H           -0.40420849626671       -1.33834422687980        2.08924713963384
H           -2.32071553034446        0.13535554965365        1.69663085511861
H           -4.76419464793656       -0.93298473336180       -1.80923962792726
H           -6.70718638633092        0.52082435169980       -2.18828391652451
H           -6.09337805244938        2.86604561297282       -2.52534321009443
H           -6.74699285431721        4.58707531960344       -4.16214281243752
H           -8.91039585364901        5.72385706598052       -4.00791996117536
H          -10.48832079340436        5.18979384156757       -2.18005505046027
H          -11.73934846674081        4.14974156028686        0.03071330710095
H          -12.34523910654538        2.86664749476325        2.05626422796181
H          -10.83283836637091        1.16290099679396        2.95421806222539
H           -8.66128784918661        0.69843271819980        1.88806798452830
H           -6.50285052002456        1.85257669574637        1.86456759993248
H           -4.59760374620539        0.35447293744685        2.26166751860219
H           -4.18296983522453       -2.91131071864563       -0.65128705073440
H           -2.26061842673976       -4.38056009155528       -0.27237964184832
