  108
       -164.16570435
 C         -0.3332117450       -4.9046960942       -3.2884205568
 C          0.1376224749       -6.2887444090       -2.8580656559
 C         -1.0207746499       -7.1287217675       -2.3257549518
 C         -0.6175980686       -8.5281328116       -1.8559696868
 C          0.4156437656       -8.5912266261       -0.7285256476
 C         -0.0375243090       -7.9827096186        0.6007316373
 N         -0.0166561496       -6.5356520488        0.5935415772
 C          1.1197667651       -5.7704385037        0.4291429848
 O          2.2420219132       -6.2046936221        0.3376350670
 C          0.6672245848       -4.3454336145        0.4285755506
 C          1.6240068246       -3.2609467736        0.3262821725
 C          1.4643939725       -2.0880080654        1.0699038168
 C          2.4099650401       -1.0882171021        1.0128302205
 C          3.5466436285       -1.2210905624        0.2131859937
 C          4.5670757114       -0.1673294115        0.1734908784
 C          5.9220151365       -0.4952920905        0.1421139077
 C          6.8893907103        0.4874948794        0.1122331065
 C          6.5232696013        1.8312829464        0.1157684407
 N          7.5043380119        2.8292390777        0.0921948935
 C          7.5433037657        3.9082743077       -0.7695357371
 C          6.6884777655        4.2400969197       -1.8107227847
 C          6.9764101740        5.3743981504       -2.5454075822
 C          8.0911345045        6.1607876845       -2.2636193571
 C          8.9590488981        5.8219261746       -1.2451508242
 C          8.6908175832        4.6862484232       -0.4926533969
 C          9.3697450327        4.0399806477        0.5954113540
 C         10.5243780905        4.3329194056        1.3089081357
 C         10.8960301618        3.4930254405        2.3394065496
 C         10.1234830592        2.3825729431        2.6720347760
 C          8.9707599081        2.0706863198        1.9770537010
 C          8.6062559062        2.8963612282        0.9232345250
 C          5.1725964748        2.1690655684        0.1457779658
 C          4.2103598923        1.1802361460        0.1735323469
 C          3.6982178614       -2.3881321025       -0.5345392814
 C          2.7574418459       -3.3944535823       -0.4782902766
 C         -0.6764251565       -4.3306254168        0.6132700552
 C         -1.6232679106       -3.2323449520        0.5810576178
 C         -1.4292020634       -2.1434509929       -0.2746558987
 C         -2.3616309023       -1.1321499625       -0.3448853969
 C         -3.5198413618       -1.1695675011        0.4335309506
 C         -4.5248710057       -0.1047375225        0.3430603115
 C         -5.8849360553       -0.4121134958        0.3675293643
 C         -6.8383339833        0.5799365375        0.2723678903
 C         -6.4529717167        1.9144035439        0.1676446022
 N         -7.4195678445        2.9224255043        0.0803235541
 C         -7.4556425100        3.9309162590       -0.8632853902
 C         -6.6074205666        4.1708101724       -1.9347236833
 C         -6.8898713907        5.2480436306       -2.7528060795
 C         -7.9930935719        6.0669661804       -2.5231791703
 C         -8.8552751699        5.8179050471       -1.4742107023
 C         -8.5922614118        4.7409578155       -0.6381617106
 C         -9.2675214198        4.1895395539        0.5031318364
 C        -10.4125220347        4.5500155655        1.2011304478
 C        -10.7826321992        3.7981247590        2.2980992819
 C        -10.0177455889        2.7095050255        2.7109081707
 C         -8.8751577767        2.3310933881        2.0322159192
 C         -8.5127732327        3.0667666444        0.9130115199
 C         -5.0970072130        2.2321350610        0.1499873016
 C         -4.1487093451        1.2326478011        0.2273847223
 C         -3.7076355012       -2.2534977731        1.2903339257
 C         -2.7799179081       -3.2707935237        1.3628573178
 C         -1.1363132430       -5.7445032703        0.7641219104
 O         -2.2459848479       -6.1629883531        0.9868827931
 H         -1.0678933442       -4.9812307731       -4.0871895117
 H          0.5030542543       -4.3080240685       -3.6462714329
 H         -0.7948647562       -4.3824493889       -2.4518750824
 H          0.5949284095       -6.8012706156       -3.7076917496
 H          0.9049897069       -6.1755688441       -2.0911836592
 H         -1.7591659894       -7.2437274426       -3.1240108657
 H         -1.5171840388       -6.5930791773       -1.5164420854
 H         -1.5206933921       -9.0497558501       -1.5288662875
 H         -0.2110622967       -9.0774395435       -2.7092842571
 H          1.3459387411       -8.1130822489       -1.0347680637
 H          0.6397871952       -9.6435149105       -0.5405363541
 H         -1.0633810284       -8.2772603666        0.8359770708
 H          0.6296292993       -8.3278735331        1.3974192639
 H          0.6036062122       -1.9821323487        1.7134262768
 H          2.2860084482       -0.2030294769        1.6192146467
 H          6.2195736887       -1.5331428574        0.1577685942
 H          7.9350815182        0.2216021386        0.0727763719
 H          5.8323500313        3.6274366524       -2.0500705032
 H          6.3239684334        5.6555953892       -3.3589453852
 H          8.2799018683        7.0414321222       -2.8593775031
 H          9.8326355770        6.4211385021       -1.0372801160
 H         11.1130216963        5.2035636865        1.0620007987
 H         11.7919342791        3.7009344442        2.9052075861
 H         10.4302538949        1.7526416892        3.4940101678
 H          8.3696496843        1.2182620520        2.2556763831
 H          4.8849244676        3.2096869730        0.1629848013
 H          3.1659932647        1.4555765834        0.1835472302
 H          4.5577906984       -2.4999248029       -1.1785915340
 H          2.8935228625       -4.2895198977       -1.0640400528
 H         -0.5512348580       -2.1123022038       -0.9028703342
 H         -2.2093668665       -0.3146491621       -1.0341914832
 H         -6.1964156492       -1.4442777844        0.4278784554
 H         -7.8880379815        0.3274585986        0.2600612442
 H         -5.7608467939        3.5310758108       -2.1337367605
 H         -6.2424859229        5.4571989819       -3.5917302795
 H         -8.1777928882        6.9009605237       -3.1837742262
 H         -9.7202803955        6.4415456013       -1.3058993097
 H        -10.9952511367        5.4041939423        0.8908822973
 H        -11.6711691495        4.0594513921        2.8533153266
 H        -10.3225144372        2.1504411565        3.5833407861
 H         -8.2796582954        1.4971033444        2.3718842367
 H         -4.7944435818        3.2670860880        0.0929156178
 H         -3.1006254474        1.4936180165        0.2299704452
 H         -4.5852534292       -2.2893790840        1.9185605236
 H         -2.9437236720       -4.1013423950        2.0306148401
