86
 energy: -129.607669318989 gnorm: 0.000144362941 xtb: 6.7.1 (edcfbbe)
C            3.22117541335986        3.68743539532112       -0.41018735564683
O            3.27091623262930        2.28247562005105       -0.28838232613289
C            2.33313892386165        1.48777286807798       -0.84652943979423
C            1.20655853323791        1.92495151635633       -1.54196326007673
C            0.89971218049605        3.27260021844123       -1.80136820927709
N            0.53445434381898        4.33347676979711       -2.05624002076027
C            0.24160236641393        0.99164918490484       -2.02341768213046
C           -0.93182519671182        1.47926825618516       -2.81286864770798
C            0.38520151579758       -0.32770685501343       -1.71962350751934
C            1.47691699817173       -0.80498723215706       -0.96934459105410
C            1.53492580253880       -2.13195827676552       -0.47900188706048
Se           0.18338863484253       -3.42644551173021       -0.95639445478579
Se          -1.21299466536894       -3.19294579330815        0.87641110879201
C           -2.11107602192690       -1.55982187164454        0.36968339996998
C           -3.16294738384031       -1.59343319758009       -0.53128786330379
C           -3.56878354560986       -2.83674526697742       -1.25153691461809
N           -3.90603594605203       -0.51667452684291       -0.75478618514305
C           -3.63097681530442        0.64661265137461       -0.18751711135324
N           -4.59664666933735        1.59479838652757       -0.27098081554646
C           -5.76300109381933        1.30129454582741       -1.07617524307695
C           -6.78866231826031        0.46929520387764       -0.29045016916894
C           -6.68490229141955        0.80713571125426        1.20045399670491
C           -6.30172040348216        2.27428840102729        1.36455598976362
C           -4.87837105952483        2.50062179127561        0.82439940128136
C           -2.36079814313150        0.86306390308017        0.45028647151755
C           -1.75277605377719        2.13660436017769        0.62367341425193
O           -2.39481306772956        3.15456461846072        0.01243175598907
C           -1.96303478326632        4.49306819697183        0.13238678453617
C           -0.54912203432652        2.23088919212637        1.32101296363788
C            0.14821088382884        3.43045241125759        1.54474307356422
N            0.81139897671468        4.34315323552106        1.77100079976758
C            0.08469564484504        1.06089864994372        1.83447793582604
C            1.35468239627189        1.19021209332340        2.61475924998678
C           -0.45377038120327       -0.16044728143793        1.56473163498857
C           -1.64239609979944       -0.30372851659325        0.82291507497524
C            2.52401625729844       -2.46305331739029        0.43035042507707
C            2.53049470269269       -3.75001067103071        1.18675092876096
N            3.56200347730300       -1.65837059743825        0.63129955740824
C            3.65992064586817       -0.48315374686703        0.03477742423966
N            4.87325893481054        0.12982572850248        0.11840404662668
C            5.85879713288331       -0.45098293107629        1.01042849789884
C            6.81728899664642        0.63610135850813        1.48770907729109
C            7.50557659016682        1.29338218631456        0.29648122537307
C            6.44213676119430        1.84289824176350       -0.64784093825465
C            5.48512147829599        0.72675083166783       -1.05276926006904
C            2.52118799034990        0.09424609886900       -0.62652018962874
H            2.34151794036704        4.10916921111562        0.08167485624945
H            4.11250107783916        4.05109217950345        0.09990617177057
H            3.25026775375903        4.00242831635995       -1.45611103836275
H           -1.52675231901060        2.18363620699315       -2.23213163460434
H           -1.56790996943618        0.64565452326757       -3.10028180074305
H           -0.59931003425781        1.99890557071723       -3.71140301633478
H           -0.37340429870996       -1.03141764983479       -2.03255932837071
H           -2.74036523587839       -3.21242784978898       -1.85461435112148
H           -3.83570548902000       -3.61503895855153       -0.53695369280226
H           -4.41815036419376       -2.62610361985669       -1.89432634248660
H           -5.43886233459329        0.76727179540811       -1.96816021803672
H           -6.19251136841444        2.26169545985860       -1.37253911247978
H           -6.59324171443382       -0.59161765449612       -0.43996787362276
H           -7.78969003438479        0.69025084964730       -0.66286048847123
H           -5.91682380604897        0.18610277106128        1.66715011881661
H           -7.63002495836007        0.60003896301950        1.70316888063446
H           -6.33255468475486        2.56727690486184        2.41453999126854
H           -7.01907588505600        2.89518209341063        0.82548124791574
H           -4.76777863517219        3.53725261762443        0.48896093256627
H           -4.15667367107425        2.31715926801302        1.62279205926155
H           -1.00580024221783        4.65762741013871       -0.36824147518260
H           -1.89480094366369        4.80269494460844        1.17790403217866
H           -2.72883198123957        5.08271420628471       -0.37088917195746
H            1.70703726207099        0.21140557717322        2.93086021103846
H            1.20193280537092        1.81470432085578        3.49491526323379
H            2.13335644889321        1.65999078213090        2.01441228687011
H            0.05612255921489       -1.05266555159594        1.90022127794964
H            3.41221704657225       -3.79716018960049        1.81839876078078
H            1.63443154147026       -3.83079922474069        1.80468745887786
H            2.53121467318888       -4.59229262547226        0.49534708598626
H            6.41849827564383       -1.24605978063109        0.49785032317362
H            5.33040963720322       -0.89832333651383        1.85168668484332
H            6.25298168135463        1.38871097133329        2.04104030310238
H            7.55352329176217        0.19546991024544        2.16127920378680
H            8.11651626070315        0.55433757724933       -0.22757476556332
H            8.16353925203885        2.09620875080082        0.63308235794791
H            5.88080284928714        2.62639221975598       -0.14100406658333
H            6.90087697226047        2.26734264448596       -1.54226284317747
H            6.05459783973928       -0.05270477651241       -1.58590873134568
H            4.71863657583184        1.09753830209298       -1.73049249832938
