  86
       -129.60763598
 C          3.2041069145        3.6859879318       -0.4251466612
 O          3.2561794039        2.2819490476       -0.2951171380
 C          2.3185871963        1.4826892534       -0.8469151039
 C          1.1896669427        1.9138985749       -1.5423543094
 C          0.8798060169        3.2596948611       -1.8077822102
 N          0.5130222895        4.3194494701       -2.0656480448
 C          0.2261759168        0.9760614393       -2.0177182013
 C         -0.9508928931        1.4577429940       -2.8053918780
 C          0.3744297233       -0.3418457064       -1.7097471144
 C          1.4679342568       -0.8129336827       -0.9581742778
 C          1.5296365860       -2.1371690860       -0.4606667270
 Se         0.1854662163       -3.4398205778       -0.9360667292
 Se        -1.2214920265       -3.2013287024        0.8883073129
 C         -2.1089170152       -1.5641030327        0.3756615093
 C         -3.1511220631       -1.5906141734       -0.5366897785
 C         -3.5548159088       -2.8299781476       -1.2649010973
 N         -3.8862082692       -0.5095351685       -0.7663469198
 C         -3.6122216147        0.6508083810       -0.1928314058
 N         -4.5712241514        1.6049616287       -0.2867098301
 C         -5.7254178891        1.3232191130       -1.1132577558
 C         -6.7692947526        0.4913400342       -0.3514976989
 C         -6.6821153657        0.8101610053        1.1444475496
 C         -6.2974616437        2.2742662147        1.3308576653
 C         -4.8669391002        2.5037115241        0.8107847695
 C         -2.3483494195        0.8597858051        0.4599086796
 C         -1.7367293395        2.1303198010        0.6423396638
 O         -2.3725322205        3.1536924815        0.0337569893
 C         -1.9398256502        4.4905831406        0.1665487730
 C         -0.5355160370        2.2169453095        1.3449386834
 C          0.1677328183        3.4124617415        1.5720485959
 N          0.8351209455        4.3220237956        1.7999059427
 C          0.0902620051        1.0429068539        1.8585529013
 C          1.3599095429        1.1643564900        2.6406761040
 C         -0.4540987911       -0.1751601549        1.5856972213
 C         -1.6384208666       -0.3111052353        0.8357344954
 C          2.5174779662       -2.4592707117        0.4533407731
 C          2.5247054131       -3.7403926788        1.2195395897
 N          3.5532123091       -1.6507798571        0.6506260338
 C          3.6495761942       -0.4800002634        0.0451899053
 N          4.8616406252        0.1357689730        0.1236333310
 C          5.8484220289       -0.4336694818        1.0213917125
 C          6.8010186647        0.6620080960        1.4908695407
 C          7.4886838658        1.3114650006        0.2949705433
 C          6.4248123979        1.8482971739       -0.6561585881
 C          5.4719469612        0.7253502986       -1.0520074804
 C          2.5097238970        0.0907926900       -0.6199394521
 H          2.3260236484        4.1092022764        0.0680527877
 H          4.0967820569        4.0540854415        0.0793301632
 H          3.2285847279        3.9947773125       -1.4730345073
 H         -1.5413755319        2.1686457772       -2.2280041065
 H         -1.5897207256        0.6223512944       -3.0813510691
 H         -0.6225317183        1.9681247161       -3.7107666393
 H         -0.3824221667       -1.0488558173       -2.0193528393
 H         -2.7242236102       -3.2027122240       -1.8667793330
 H         -3.8246241100       -3.6120991543       -0.5557700656
 H         -4.4012685074       -2.6155446865       -1.9101823931
 H         -5.3888826639        0.7941005341       -2.0035898289
 H         -6.1444858217        2.2882065031       -1.4097985165
 H         -6.5823257897       -0.5695761956       -0.5112529270
 H         -7.7632238171        0.7267302679       -0.7340025899
 H         -5.9210295201        0.1812787837        1.6120706611
 H         -7.6335721901        0.5992123040        1.6334259108
 H         -6.3407997704        2.5548262716        2.3837867106
 H         -7.0065954486        2.9031739488        0.7901569539
 H         -4.7519280533        3.5423477853        0.4832525390
 H         -4.1555438834        2.3150463091        1.6170710534
 H         -0.9827915375        4.6590518013       -0.3329693258
 H         -1.8711914103        4.7901583761        1.2149567874
 H         -2.7051298117        5.0856958683       -0.3309903234
 H          1.6988298846        0.1851354723        2.9680323901
 H          1.2146543932        1.8003955138        3.5130469664
 H          2.1453695946        1.6164156063        2.0361745235
 H          0.0490132394       -1.0704589861        1.9231612803
 H          3.4064455295       -3.7821824315        1.8515079795
 H          1.6287362807       -3.8167756641        1.8381432187
 H          2.5256622374       -4.5880138639        0.5347433637
 H          6.4126046299       -1.2300585563        0.5158336401
 H          5.3209063650       -0.8767540443        1.8654393747
 H          6.2320578665        1.4170534612        2.0360667341
 H          7.5379009472        0.2310441630        2.1699369060
 H          8.1036542139        0.5703071116       -0.2213187832
 H          8.1426666922        2.1200493220        0.6254982200
 H          5.8603147876        2.6347619765       -0.1576204494
 H          6.8834893210        2.2656923435       -1.5539309076
 H          6.0444508343       -0.0564878725       -1.5783712851
 H          4.7043387036        1.0876665758       -1.7330970966
