86
 energy: -129.581341584429 gnorm: 0.000167343661 xtb: 6.7.1 (edcfbbe)
C            6.42415787062272        2.12106481667373        1.78722575681077
O            5.91826510875650        1.04873187826568        1.02822231776157
C            4.73569043203578        1.15287163828848        0.37829670067207
C            4.00726999165219        2.32821716967986        0.20266405129417
C            4.48637800474964        3.61228132636845        0.52757840218424
N            4.80924176275816        4.69756974071069        0.72715916841558
C            2.70198411412404        2.29011160850357       -0.36815800551761
C            1.96698132315266        3.57262633215003       -0.59609841183448
C            2.13397305473362        1.08474913757061       -0.65423568508113
C            2.83914015685849       -0.12357998939725       -0.49342230298845
C            2.22513974105497       -1.39119636706734       -0.63904962552434
Se           0.40248727530052       -1.55605386186858       -1.22914918980636
Se          -0.58940070260958       -1.64331740740021        0.91373781043994
C           -2.38088944397087       -1.22560542037630        0.35532876201179
C           -3.20511333443087       -2.23054219932169       -0.12618203274666
C           -2.71697382868214       -3.61724224843741       -0.38917224973385
N           -4.49840910318578       -2.01588127603519       -0.33354347884313
C           -5.04347826974571       -0.82092783294093       -0.16037098656990
N           -6.39766162912564       -0.76594806295625       -0.11154299866060
C           -7.16652979569813       -1.91928503239385       -0.55722007813896
C           -8.25871068237762       -2.28754622579854        0.43853237569784
C           -9.26673191116728       -1.14136155487545        0.57627162561537
C           -8.56303498206299        0.20953144409493        0.39589689786313
C           -7.10076089422729        0.10687640741168        0.81033409737001
C           -4.20104510792705        0.34080500631985       -0.04741811718687
C           -4.58528612462780        1.65495583661919       -0.42764322207786
O           -5.77078435775912        1.73304330115937       -1.07905961547292
C           -6.18379655082233        2.92076242281562       -1.71091289774329
C           -3.72891117056071        2.72320890951684       -0.16749868266829
C           -4.04533828405587        4.07325692909592       -0.41402563515033
N           -4.22700084176218        5.20052951775587       -0.54968096361620
C           -2.44503387792589        2.49380690815869        0.40720163000963
C           -1.57325461058449        3.66287944215042        0.73934671106168
C           -2.02075888807318        1.21313327394848        0.59986473543063
C           -2.85353530077920        0.10892128001756        0.33515079482094
C            2.93776112063715       -2.52465133436800       -0.28038733399411
C            2.30702379333644       -3.87295842107885       -0.16460452118220
N            4.24798280229210       -2.47017661394224       -0.07209141644824
C            4.91072027139812       -1.32587757199446       -0.10451767014593
N            6.26514001238338       -1.41589255826222       -0.13039239635319
C            6.87489359401352       -2.71455909811492        0.07395018887603
C            8.22137372615069       -2.53695340010546        0.77104436387960
C            9.13421019078115       -1.64199555347221       -0.06070768191334
C            8.43624866396565       -0.30932301929039       -0.31142949365504
C            7.07916864581577       -0.55561996100883       -0.96351059966268
C            4.20176617407382       -0.07585677635580       -0.09664369072835
H            5.66331229220772        2.54458920136535        2.44781653447167
H            7.22546345138762        1.69622516149085        2.39208295637142
H            6.83170869791301        2.91173194356965        1.15205687147999
H            2.53756091412482        4.22320603670788       -1.25851683032373
H            1.82754489330210        4.11166591072801        0.34102535794845
H            0.99561790445786        3.37976392667401       -1.04334838560076
H            1.11325858850417        1.04056436895647       -1.00723572542365
H           -2.30833326622264       -4.05215579752523        0.52237542033204
H           -3.53644171794146       -4.23082230645700       -0.75022684159336
H           -1.92231008868593       -3.59579324734805       -1.13605839952929
H           -6.47531542454209       -2.75012133824500       -0.69847406123422
H           -7.62254072193191       -1.67422493970740       -1.52464716390549
H           -7.79795572218451       -2.50704035244477        1.40292968784723
H           -8.76025027244775       -3.19513642802042        0.10180053462948
H           -9.74026262004148       -1.19112070028505        1.55801947683037
H          -10.05360129362838       -1.24359751679486       -0.17227160226107
H           -9.05681306386984        0.97903564808208        0.98989306121277
H           -8.59840583057124        0.52151046955769       -0.64836646062601
H           -6.64572661279177        1.09297228644259        0.82832759520990
H           -7.03745704041060       -0.30380165674318        1.82952637615519
H           -7.06033302318038        2.64306533876260       -2.29584680720943
H           -5.41294395696213        3.31367678977785       -2.37871757940148
H           -6.46220505625791        3.69135978560207       -0.98750602704208
H           -1.37048739076682        4.26092314945159       -0.14905626059443
H           -0.63159169484670        3.32620783511909        1.16455384208025
H           -2.07163060514093        4.31404708450282        1.45724626825849
H           -1.01611002219293        1.02571316400223        0.95200231768623
H            1.52819432074756       -3.85447520078621        0.59904408765528
H            1.84286603990150       -4.15452932325410       -1.10924518110367
H            3.06106842423989       -4.60612200750090        0.10400413373621
H            7.01656863467588       -3.22468170907859       -0.88908385531205
H            6.19736802670011       -3.31447027026419        0.68039198474494
H            8.05652567905452       -2.07924812247181        1.74793565992933
H            8.67953966997470       -3.51507755809929        0.92365282838202
H            9.35068250689008       -2.12745033283934       -1.01550717584240
H           10.08148107715825       -1.48104070561496        0.45662304930310
H            8.28637327557261        0.20763064225941        0.63548482196702
H            9.04005002494472        0.32563616334861       -0.96158863642625
H            7.23743090748495       -1.05861824128666       -1.93164575381153
H            6.56353995706853        0.38242230759521       -1.15858852536427
