86
 energy: -129.564036304255 gnorm: 0.000032543421 xtb: 6.7.1 (edcfbbe)
C            2.13554005568925        3.04633416991786       -1.82305548802807
O            2.20356794040604        1.71607960581615       -1.36816756683051
C            1.23634618532861        0.82849368644258       -1.68951376390428
C            0.09570567920974        1.12495304020650       -2.43266960281266
C           -0.22327698122735        2.39025698838611       -2.96271552542647
N           -0.59638658000439        3.37124129792105       -3.43306101424666
C           -0.88081186970072        0.12222311875294       -2.69883582414683
C           -2.02816634979223        0.43963920332039       -3.60215199621368
C           -0.75748809749140       -1.09310126654636       -2.09626521107854
C            0.34568103295049       -1.41208038010161       -1.28395748064577
C            0.40938519536044       -2.63601795226894       -0.56910010015802
Se          -0.99507635094405       -3.89394957932301       -0.60614449182549
Se          -3.19237319041901       -2.33062939696569        0.67761572275081
C           -2.49912524019480       -0.58148896024219        0.55191578804444
C           -3.12872811565135        0.34421744560930       -0.27643201407091
C           -4.34068121104510       -0.00712293269911       -1.07558518422060
N           -2.72705571268419        1.60306648807132       -0.33740086129185
C           -1.69309002882132        2.04618143935526        0.36314918394299
N           -1.52314060635296        3.39708257100702        0.37232550290064
C           -2.33852610751328        4.18277402014043       -0.53165074777601
C           -3.74591090012909        4.42120940058784        0.03631223743947
C           -3.68115549925136        4.44740386399661        1.56641834726216
C           -2.34942063817487        5.04552188949967        2.00666055117209
C           -1.19885881387633        4.11017726234285        1.59331460435799
C           -0.82676536010298        1.13280211395886        1.05372223542563
C            0.48717169756231        1.44078677526193        1.50765435419602
O            0.97289721286252        2.63055032348119        1.08972457724847
C            2.25494048016715        3.06524289545478        1.47607643870794
C            1.18116342493612        0.51545538766212        2.28468593222578
C            2.47709021459352        0.70651718636851        2.80103028072953
N            3.52330973262714        0.75888316228746        3.27582410708556
C            0.59500632688125       -0.74122207411894        2.61137217219110
C            1.32149472040224       -1.66864001528318        3.53093903400779
C           -0.59803727531716       -1.08118836631588        2.04706213615274
C           -1.31045231928819       -0.19256138564624        1.22128630992694
C            1.51849395962416       -2.87855195939046        0.23422337846828
C            1.63713798298611       -4.10768929290101        1.07385647001582
N            2.55854546225086       -2.05904739763999        0.23780558366661
C            2.59289864997704       -0.95397743210846       -0.48985084862601
N            3.80030258565161       -0.30869158714858       -0.51739639528175
C            4.80492993063786       -0.75488510013559        0.43331619287654
C            5.80644350977026        0.36597245028780        0.69191053378089
C            6.46130528710327        0.81327310793036       -0.60983246328187
C            5.37580592875343        1.21006751120860       -1.60418084562425
C            4.40135532450001        0.05186522745986       -1.78868697827618
C            1.42200960428021       -0.48945330110551       -1.17922291682238
H            1.26164105898269        3.56222772651617       -1.41827377948036
H            3.04239770483236        3.52779395203159       -1.45841018872416
H            2.12039012932653        3.09827951045525       -2.91502006581960
H           -1.66806316113660        0.82172286278958       -4.55697342544918
H           -2.65597152663729        1.21064771203112       -3.15717975310866
H           -2.62954922400185       -0.44743528238145       -3.78162055500639
H           -1.52088659065446       -1.84592238336704       -2.23823248503957
H           -5.14375219203131       -0.31318706920158       -0.40433039989558
H           -4.66573407313218        0.85209733334395       -1.65445819930781
H           -4.13237645005727       -0.84281869222489       -1.74151863708109
H           -2.38905237629002        3.66987428208785       -1.49070903724480
H           -1.81702285525842        5.13233371126893       -0.67570859465581
H           -4.41386369050816        3.62487808052612       -0.28811984107025
H           -4.12788497919109        5.36848307696211       -0.34580216113354
H           -3.76012343477485        3.43025112102769        1.95716203520685
H           -4.51240205621658        5.02463286749905        1.97235639907423
H           -2.32301626658829        5.17998015961930        3.08867070736927
H           -2.22803993633163        6.02737365910385        1.54637307579727
H           -0.28202362953831        4.69247490328578        1.45065264270090
H           -1.02545208071899        3.38205182842880        2.38788054783951
H            3.03140904832804        2.40223689403346        1.08707591378906
H            2.34494233629517        3.14182919812992        2.56268193117723
H            2.36834483494802        4.05678312485758        1.03809009963715
H            1.58562345383312       -1.16000223447330        4.45762513814149
H            2.24755062835776       -2.00778922409667        3.06790436046996
H            0.70667803952384       -2.53337067076445        3.76567876923085
H           -1.02458205327395       -2.05732765818410        2.23390098564609
H            2.58007538509174       -4.09776305330835        1.61194996163210
H            0.80984988577405       -4.17186512067839        1.77884318050867
H            1.59588318102436       -4.99104111451616        0.43601945027127
H            5.32418250506848       -1.64488224084610        0.05129798179300
H            4.30248042443521       -1.02585453897003        1.36071105495880
H            5.28567851787529        1.20576603194820        1.15477009891786
H            6.55796445026293        0.01093279527877        1.39740006396250
H            7.05208469761685       -0.00769008666630       -1.02330366953604
H            7.13392070384604        1.65304566716763       -0.42764198665440
H            4.83360947724225        2.07449511059233       -1.22201810186477
H            5.81200849472224        1.47305427122693       -2.56930989997894
H            4.95518295851334       -0.81940832073726       -2.17594117090889
H            3.63035691790334        0.30083115167746       -2.51504516356067
