86
 energy: -129.559236575354 gnorm: 0.000090583676 xtb: 6.7.1 (edcfbbe)
C            3.16954456572938        3.70400493755765       -0.47871258648125
O            3.18409800436944        2.30148073926699       -0.32350760779775
C            2.25271914174128        1.51233661459786       -0.89970908748436
C            1.13961544837838        1.95937427686665       -1.61087423640350
C            0.84871154156149        3.31123343601777       -1.86909867591173
N            0.49951441756896        4.37727949483138       -2.12429518733249
C            0.17264600430646        1.03810304249579       -2.10951777499420
C           -1.00344175869958        1.54310486567184       -2.88356469971087
C            0.31886434816229       -0.28824137125629       -1.83586656597733
C            1.41000248459326       -0.77968197925413       -1.09654498585790
C            1.47090436811800       -2.13446301125694       -0.67995153980526
Se           0.29701277338573       -3.43781626981030       -1.36144222790092
Se          -1.30010684480606       -3.16234464619055        1.23657600948897
C           -2.02641706152908       -1.57718601641381        0.52903982150703
C           -3.05698031330736       -1.63708073107521       -0.40796543968914
C           -3.48632372850195       -2.91462341028963       -1.04948877569820
N           -3.77031987648712       -0.56388198045747       -0.70680808075145
C           -3.50631524474115        0.62319227531416       -0.18064993241748
N           -4.46810719723995        1.56846575958394       -0.33449842978180
C           -5.59476523325311        1.25088167820084       -1.18530302163085
C           -6.65308165483969        0.43158064865483       -0.42894641187420
C           -6.61336915423917        0.79559257289224        1.05858771730705
C           -6.24720159980132        2.26813172978441        1.21185665772559
C           -4.80406556684985        2.49609119829251        0.72666020592009
C           -2.25591379448511        0.85626842787017        0.48691114857585
C           -1.65406351014377        2.13478146976486        0.64401953779312
O           -2.29399878738948        3.14130431285172        0.01150302535780
C           -1.90027039122558        4.48950827805452        0.15387464691123
C           -0.45785798280385        2.24563735089770        1.35225194626947
C            0.22202016758754        3.45628771574112        1.57262976549953
N            0.86627599612049        4.38247641601780        1.79799234893406
C            0.18547397267567        1.08794951456886        1.88002923266462
C            1.46468733425133        1.23504221787141        2.64155552510525
C           -0.35431751519715       -0.13996749208736        1.63956736670502
C           -1.54987897577023       -0.29839057460583        0.91482215098523
C            2.43097659042676       -2.48715344106646        0.26450499101863
C            2.45845043011057       -3.82529630188845        0.92495380672696
N            3.42966887034841       -1.66879627461966        0.55875541029274
C            3.53990579991503       -0.46586633854805        0.01818884510279
N            4.73709984886254        0.16198639724503        0.20908481394429
C            5.64597700545919       -0.42615103764727        1.17508582819421
C            6.58250460787399        0.64970112994354        1.71647669829530
C            7.36829606745550        1.28654905395495        0.57572586133463
C            6.38598584090526        1.84755389160832       -0.44626137943714
C            5.44193739805337        0.74605985401100       -0.91609912148130
C            2.43345723562287        0.11577090565888       -0.68882846338929
H            2.29893783260905        4.15914477447534       -0.00183791007536
H            4.06664450579646        4.05824016615959        0.02771076260967
H            3.21224217139939        3.99290400199726       -1.53160096515877
H           -1.60713396975988        2.21583676637482       -2.27432831961270
H           -1.62838290177011        0.71361012289301       -3.20499176952513
H           -0.67608616298903        2.10262344370497       -3.75960966016864
H           -0.43589797497727       -0.99040189793707       -2.16311802743262
H           -2.63199181781288       -3.41872067151028       -1.50262323939396
H           -3.90557598444933       -3.58599954739633       -0.29971171394614
H           -4.23726783060697       -2.70963455674331       -1.80676708058776
H           -5.22896381193203        0.69898203813029       -2.04987401279157
H           -6.01394121829971        2.20240871169263       -1.52215842559230
H           -6.45126471777575       -0.63151095136021       -0.55147228419547
H           -7.63719446555702        0.64538561111040       -0.84760611209937
H           -5.86168796756965        0.18810749919420        1.56781119526217
H           -7.57727917000004        0.59061350274318        1.52505647606504
H           -6.32325266664550        2.57987763487786        2.25404392792635
H           -6.94583136022473        2.87367863576540        0.63225053924421
H           -4.69032600511534        3.52535245571966        0.37083288907207
H           -4.11446945561274        2.33919772241299        1.55814780888532
H           -0.94213920621431        4.68706233226143       -0.33181763776655
H           -1.85492512026535        4.78723715274888        1.20398991553293
H           -2.67453963082691        5.06497414588155       -0.35292269065133
H            1.80974141061375        0.26539192175516        2.99180033462187
H            1.32951324781804        1.89586401732427        3.49759459667120
H            2.24032481849482        1.67128937773363        2.01202566363631
H            0.15766628671008       -1.02826365726331        1.98381141330088
H            3.24330093054914       -3.84594714917560        1.67504875613260
H            1.49549905616654       -4.04008696261516        1.38975817432676
H            2.64812998479859       -4.60265541339453        0.18456174353793
H            6.23062482020307       -1.23259024804945        0.71037996899350
H            5.05136822967290       -0.86064542139281        1.97815114098577
H            5.99071341388520        1.41519933178397        2.22137105035159
H            7.25872201805370        0.20235713510405        2.44611415216859
H            8.00307475417578        0.53372499515501        0.10218183182412
H            8.01343846825104        2.08053736268387        0.95517802459976
H            5.80323424865784        2.64309698990454        0.01571628729658
H            6.91529052120788        2.25963861486640       -1.30679335508109
H            6.03451531688415       -0.04377378988086       -1.40699230376232
H            4.73081661328967        1.12802471279263       -1.64616488794099
