57
 energy: -93.168174895336 gnorm: 0.000173803099 xtb: 6.7.1 (edcfbbe)
C           -6.72330665680515       -3.72769032703009        0.00409333858075
O           -5.34732986511246       -4.03443971742374       -0.01265474009942
C           -4.44960914366491       -3.00051673188235       -0.01234419625293
C           -3.10063143180045       -3.38976515487475       -0.03539007675494
C           -2.07777445956671       -2.46738788718757       -0.02839843299577
C           -2.41238758373738       -1.11969590383223        0.01433909143874
C           -3.76430381680786       -0.71713808058544        0.00446954283081
C           -4.78969355326120       -1.65815039518141       -0.00357137436430
C           -3.76470350561135        0.71861046287795       -0.01260911075981
C           -4.79065249346779        1.65901596445822       -0.00550527042900
C           -4.45136786372281        3.00158292294687        0.00316376538407
O           -5.34971495231106        4.03495812779989        0.00237349689581
C           -6.72548163225835        3.72736783613749       -0.01637358008489
C           -3.10263230174332        3.39162182926105        0.02720452461168
C           -2.07922056654714        2.46984182322620        0.02116167752797
C           -2.41300318761442        1.12194165449142       -0.02165031652997
N           -1.59902731775929        0.00135273788679       -0.00344716143526
C           -0.20524839615536        0.00148969331163       -0.00359088160922
C            0.50100050776340       -0.81226292122487        0.88273097794465
C            1.87944929844700       -0.81933409607602        0.87351818640526
C            2.58703874403696        0.00109609359982       -0.00428633214484
C            4.05230731173578        0.00030833172637       -0.00438097711614
C            4.78418900677286        1.19619065747487        0.04971187565259
C            4.13514983742279        2.44311989746891        0.16160581263463
N            3.65008921521587        3.47747117615426        0.27680337212308
C            6.19176384331794        1.14762395365034        0.04702317856004
C            7.01152906635218        2.39098742146488        0.10978529360198
N            6.84277555623413       -0.00175591291024       -0.00390531662166
C            6.19013494623557       -1.15019947328842       -0.05506662781987
C            7.00807509961522       -2.39477822582183       -0.11756945876747
C            4.78249532804266       -1.19665481582305       -0.05837058058445
C            4.13158394641595       -2.44251408625346       -0.17146011788384
N            3.64501999929200       -3.47608183279637       -0.28762697208348
C            1.87934309238710        0.82201240536102       -0.88146791893868
C            0.50087648706898        0.81522709331984       -0.89005236013862
H           -7.01772701694838       -3.16426481315900       -0.88699472723136
H           -7.23643534272166       -4.68807772701703        0.01021653130535
H           -6.99608811171191       -3.16410635518889        0.90191212658013
H           -2.88582185842246       -4.44657193383459       -0.06380504305088
H           -1.05050400193809       -2.79452030973638       -0.06922894421324
H           -5.81535819387563       -1.32777300570698       -0.00959368701911
H           -5.81612535984060        1.32803794687136       -0.00015483510490
H           -6.99651532849503        3.16318038648184       -0.91434127427854
H           -7.23917098514842        4.68743980503621       -0.02376755825187
H           -7.02096400234115        3.16418357400351        0.87450936560266
H           -2.88847184643514        4.44856421967400        0.05552566977294
H           -1.05217097427971        2.79758561820437        0.06263496231947
H           -0.03651832175410       -1.42270022514656        1.59142805902844
H            2.41391102651445       -1.43980779880108        1.57799017735272
H            6.81311758143563        2.92583727680457        1.03821611163809
H            6.75639914633528        3.05817310704924       -0.71251561880189
H            8.06517228034292        2.13275775382502        0.05868414970111
H            6.80648767454950       -2.93157862722428       -1.04416958973187
H            6.75419755207613       -3.05962280482117        0.70704118250389
H            8.06220103829761       -2.13790542460141       -0.06962988737318
H            2.41365588012984        1.44214446571326       -1.58633851757446
H           -0.03682579511263        1.42618772698256       -1.59815452797694
