57
 energy: -93.087303674926 gnorm: 0.000044153864 xtb: 6.7.1 (edcfbbe)
C           -6.73101990170322       -3.74701890915011       -0.19206885816068
O           -5.34524691266318       -4.02689633206758       -0.21714560769745
C           -4.46240883744133       -3.00905464776919       -0.16490376771179
C           -3.10610153074815       -3.39006751638018       -0.21576873873634
C           -2.09123846807631       -2.46351941301963       -0.16429245766495
C           -2.43522403114825       -1.11806570985829       -0.04838947982425
C           -3.79703031414744       -0.71956771745595       -0.03263369563012
C           -4.81243848201647       -1.65849418665577       -0.08378087868579
C           -3.79592757233766        0.72009633715630        0.02216608933298
C           -4.80987202171719        1.66053992753055        0.07452920919702
C           -4.45774141458168        3.01055528641143        0.15560472705884
O           -5.33901569958921        4.02968106957313        0.20919904680842
C           -6.72523344761427        3.75184694293847        0.18590069014218
C           -3.10081283669559        3.38953621955319        0.20499481714645
C           -2.08739214652857        2.46147732628864        0.15227228446149
C           -2.43351909654990        1.11655290556321        0.03658531267937
N           -1.63113645281484       -0.00136367248776       -0.00629982238709
C           -0.24354737343480       -0.00221877357954       -0.00670130680510
C            0.47632398858760       -0.88493648383769        0.82234727616471
C            1.84108174422337       -0.88080112620217        0.82575797933263
C            2.59061951757859       -0.00234506512854       -0.00601527611488
C            4.01122230169358       -0.00121238309699       -0.00475731607871
C            4.78855763829718        1.18108039867943       -0.27809182617729
C            4.21341906096114        2.44476273620992       -0.44331714829595
N            3.81666149011505        3.52424686506356       -0.54911553966314
C            6.18151158769925        1.12507641336806       -0.26163087917431
C            7.01888946632448        2.33795113097084       -0.52514587015627
N            6.84662215967245        0.00178059600562       -0.00226477338539
C            6.18340630003302       -1.12288037479512        0.25601238166817
C            7.02296257011028       -2.33387941772263        0.52121838443425
C            4.79053130612232       -1.18185108159393        0.27006232431781
C            4.21772144882141       -2.44664020287702        0.43483967333421
N            3.82272040092724       -3.52678273007982        0.54054774383883
C            1.84151428698792        0.87545771720307       -0.83888755449686
C            0.47677638456363        0.87986977001451       -0.83601258331978
H           -7.02877620437845       -3.14238338632165       -1.05308795376972
H           -7.22418115567087       -4.71611366172178       -0.24249477911085
H           -7.01687691197933       -3.24108781918544        0.73410826552625
H           -2.88642310432755       -4.44174179297729       -0.30482438024758
H           -1.06092423331750       -2.77510684274339       -0.22874876146858
H           -5.84145251589878       -1.34089574376310       -0.06751542421307
H           -5.83937950822454        1.34450866925683        0.05926056220278
H           -7.01315059510998        3.24706723941419       -0.74026965272869
H           -7.21689511622431        4.72162512148973        0.23780654102409
H           -7.02266090803482        3.14696230927727        1.04685779021698
H           -2.87945801219688        4.44086313137438        0.29400529727637
H           -1.05654306323656        2.77152126458339        0.21568131942736
H           -0.06235082746374       -1.52051108029268        1.50931520001883
H            2.36588310884179       -1.52080634513052        1.51771361904623
H            6.80209647861564        3.11650016663485        0.20577036349796
H            6.80433880277987        2.74364298397899       -1.51329474596952
H            8.06938066460018        2.06719959304740       -0.46480980730930
H            6.80821479652396       -3.11358525235069       -0.20905835334336
H            6.80857092552840       -2.73899544164208        1.50964251674998
H            8.07295568449980       -2.06107770778836        0.46138196663664
H            2.36671770935230        1.51490087597017       -1.53106849596095
H           -0.06154435330557        1.51527432456219       -1.52341949721089
