57
 energy: -93.087709027458 gnorm: 0.000180712104 xtb: 6.7.1 (edcfbbe)
C           -5.28986881642361       -5.19475213238661       -0.42169847551872
O           -5.53563254096381       -3.80782726896722       -0.30361425129701
C           -4.49756826608560       -2.94836252397399       -0.23984315670120
C           -3.14757504260435       -3.32454900429832       -0.30121542673287
C           -2.13877624228332       -2.38333285066948       -0.22231556499840
C           -2.48498444699335       -1.04701084947717       -0.06675009209900
C           -3.85006989566807       -0.65006347459932       -0.04230983521500
C           -4.85043728366879       -1.59465911147542       -0.12212827046202
C           -3.84913234433217        0.78764852356266        0.05290852600395
C           -4.86393732514420        1.72478157077160        0.12816555308184
C           -4.51299193906082        3.07225570638799        0.24596211825306
O           -5.39406036985351        4.08893011171411        0.32460728396309
C           -6.78027122516525        3.81172711635983        0.28995132600863
C           -3.15547486272856        3.45102515085962        0.30976097543203
C           -2.14135303306479        2.52627015006308        0.23538820709953
C           -2.48625644425618        1.18403614891969        0.08188630314926
N           -1.68258789959786        0.07024924667105        0.01000348423094
C           -0.29428755152362        0.06753371572695        0.01382000869723
C            0.41970596534119       -0.83664259089425        0.82413110516734
C            1.78449355078859       -0.84193344669915        0.82673549952474
C            2.53933862463925        0.04779182386153        0.01230526064532
C            3.95995480353133        0.03136929266616        0.00714955756079
C            4.75276273149314        1.20888904829116       -0.23976564560966
C            4.19448670711426        2.48380072818914       -0.37362836450777
N            3.81093323858781        3.57025132018098       -0.45354478885137
C            6.14481166335742        1.13321095139438       -0.22797037769223
C            6.99822903442002        2.34070838620924       -0.46382284378472
N            6.79573186499043       -0.00498115085781        0.00207413980230
C            6.11709047727171       -1.12641565541498        0.23300237234898
C            6.93987834868719       -2.35585478323812        0.46473320102338
C            4.72365693650902       -1.16670165708307        0.24887786587253
C            4.13304236585386       -2.42719722610187        0.37870905083780
N            3.72096990311662       -3.50371299811404        0.45345199513034
C            1.79610836163833        0.95226427554633       -0.79654940569881
C            0.43114029059282        0.96562021911466       -0.79296339261094
H           -4.72114229791813       -5.57206484277806        0.43243497658190
H           -6.27235277004139       -5.66325548581725       -0.43926988122469
H           -4.75923933604206       -5.42690791165073       -1.34911577853339
H           -2.87664105563534       -4.36023757743347       -0.42126913382207
H           -1.10676383756483       -2.68847388838777       -0.29561210972998
H           -5.89462009688039       -1.32898997850552       -0.10263553222625
H           -5.89220868449476        1.40568172952505        0.10151646617652
H           -7.06551889799459        3.33259710626141       -0.65050442738002
H           -7.27218451992686        4.77962404294009        0.36784223732945
H           -7.07962733396437        3.18226371828428        1.13230935472284
H           -2.93589960129742        4.49984641444955        0.42805822114829
H           -1.11077405498610        2.83471624600479        0.30998287135590
H           -0.12318592452989       -1.48304753986213        1.49766710010938
H            2.30561408013959       -1.49974193794774        1.50474318623043
H            8.04500284995960        2.05414525267989       -0.41205647860036
H            6.79334120994545        3.10442596169052        0.28596831103038
H            6.78764606456495        2.77288485100841       -1.44158817623662
H            6.71199363980696       -2.79129377209365        1.43711013264857
H            7.99355925440063       -2.09424737671798        0.42216434151372
H            6.72215962166385       -3.10785471221781       -0.29331370930499
H            2.32543638780038        1.60637948497906       -1.47166245723335
H           -0.10323587753082        1.62217699255968       -1.46338794952412
