  73
  -119.509851410000       0.153335457117539      !
 C         -7.0317975238        2.9689021328        1.3810648146
 C         -5.6951379776        3.2090514070        1.6609861612
 C         -4.7122572437        2.3170466302        1.2527623647
 C         -5.0948720836        1.1878404785        0.5637864030
 C         -6.4452206283        0.9395358721        0.2800454621
 C         -7.4211895212        1.8331175909        0.6887483257
 C         -6.5402674490       -0.3170364129       -0.4478751518
 C         -7.6352928538       -0.9982985840       -0.9525927100
 C         -7.4227456004       -2.1967015175       -1.6154725199
 C         -6.1428317187       -2.7062117809       -1.7725930271
 C         -5.0412972429       -2.0271744262       -1.2688331035
 C         -5.2484369383       -0.8365210654       -0.6091287644
 C         -4.2153576154        0.0801550285        0.0193050680
 C         -3.2780081924        0.6041630060       -1.0405287687
 C         -3.8165451437        1.3355715487       -2.0891094862
 C         -3.0275720714        1.7933125810       -3.1267368318
 C         -1.6765291309        1.4927495072       -3.1265355755
 C         -1.1235620740        0.7692828490       -2.0897316399
 C         -1.9074290701        0.3330182838       -1.0181426359
 N         -1.3446431114       -0.3908170213        0.0289754843
 C          0.0315171256       -0.7118534477        0.0039392539
 C          0.4076064600       -2.0720450045       -0.1185270485
 C          1.7199792362       -2.4349967271       -0.1662555475
 C          2.7285105935       -1.4480670826       -0.0919359899
 N          4.0177412641       -1.8047792103       -0.1424447710
 C          4.9269181068       -0.8505017224       -0.0675545798
 C          6.3260413281       -1.2080156188       -0.1219736872
 C          6.7339509022       -2.5394540743       -0.2552130591
 C          8.0807131945       -2.8236361075       -0.3030626641
 C          8.9818794191       -1.7611459974       -0.2158297715
 N          8.6191483035       -0.5064280210       -0.0903223551
 C          7.3205258391       -0.2128809829       -0.0419799818
 C          6.9390017060        1.1841708145        0.0973811769
 N          7.9091209800        2.0942383350        0.1723734903
 C          7.5843908243        3.3592952607        0.2980280311
 C          6.2679447282        3.8194783330        0.3576577817
 C          5.2515215834        2.8930765278        0.2818680779
 C          5.5763205664        1.5390790495        0.1491529751
 C          4.5511855062        0.5230498046        0.0656084811
 N          3.2838060748        0.8860329356        0.1118414393
 C          2.3526124736       -0.0762297437        0.0344026277
 C          0.9876341207        0.2680370928        0.0856143247
 C         -2.1084017541       -0.8247795207        1.1065773264
 C         -1.4949548143       -1.4341407989        2.2051445818
 C         -2.2410738242       -1.8779408183        3.2778045089
 C         -3.6151171439       -1.7108327360        3.2892959740
 C         -4.2246594172       -1.0757384678        2.2238663903
 C         -3.4902188292       -0.6248981983        1.1372381259
 H         -7.7792131406        3.6770020538        1.7079607350
 H         -5.4155369783        4.1004825193        2.2029004227
 H         -3.6708145060        2.5040307704        1.4711706537
 H         -8.4637657954        1.6500870274        0.4743305339
 H         -8.6341454252       -0.6052762408       -0.8339320450
 H         -8.2648893249       -2.7413616535       -2.0167459742
 H         -6.0013691910       -3.6418079535       -2.2933592436
 H         -4.0439606929       -2.4235976277       -1.3939243377
 H         -4.8770301276        1.5397144047       -2.0875933886
 H         -3.4635031164        2.3640329756       -3.9318696185
 H         -1.0450105578        1.8191491678       -3.9392878265
 H         -0.0716625320        0.5336293325       -2.1185574540
 H         -0.3738849299       -2.8149803973       -0.1811927522
 H          2.0214155593       -3.4657154330       -0.2675551714
 H          5.9799177968       -3.3093391717       -0.3169333454
 H          8.4357061611       -3.8373403741       -0.4050368884
 H         10.0497063650       -1.9347271272       -0.2496907731
 H          8.4165952919        4.0490480238        0.3534917969
 H          6.0587242852        4.8728934945        0.4604485500
 H          4.2104874472        3.1753969163        0.3216169489
 H          0.7187955406        1.3081343953        0.1851318044
 H         -0.4227980077       -1.5529760763        2.2237440441
 H         -1.7422529937       -2.3501555250        4.1109110753
 H         -4.2032446081       -2.0590007668        4.1241024056
 H         -5.2934028740       -0.9207117876        2.2276358018
  73
  -119.509829680000       0.149849802770146      !
 C         -7.3919427759        2.7055394314        1.3084091501
 C         -6.1006382227        3.0964568490        1.6287338911
 C         -5.0103315775        2.3217112786        1.2551399194
 C         -5.2399413677        1.1561870722        0.5582704318
 C         -6.5438713065        0.7575047366        0.2307962297
 C         -7.6275814930        1.5336228739        0.6066419773
 C         -6.4723816790       -0.4981316538       -0.5012964831
 C         -7.4659748318       -1.2944703924       -1.0458547550
 C         -7.0975032185       -2.4554353003       -1.7069965597
 C         -5.7636734359       -2.8157192777       -1.8234678102
 C         -4.7634175739       -2.0214929999       -1.2786091899
 C         -5.1258086368       -0.8678408241       -0.6201589935
 C         -4.2248116108        0.1527510634        0.0523328722
 C         -3.2967241377        0.7663274018       -0.9667211709
 C         -3.8483863580        1.5302436438       -1.9845799041
 C         -3.0662910963        2.0508611938       -2.9978002669
 C         -1.7091603802        1.7797527764       -3.0060199487
 C         -1.1426755558        1.0250865234       -1.9988206083
 C         -1.9197587804        0.5257782343       -0.9506044974
 N         -1.3469901743       -0.2270722193        0.0703286866
 C          0.0197310438       -0.5815133166        0.0184736266
 C          0.3497730502       -1.9530079250       -0.1135656020
 C          1.6482588854       -2.3595961901       -0.1764686684
 C          2.6895943170       -1.4069645659       -0.1068644721
 N          3.9655032821       -1.8073366673       -0.1628781906
 C          4.9070154121       -0.8848052760       -0.0893446329
 C          6.2927060521       -1.2907882788       -0.1442992474
 C          6.6540908213       -2.6367783989       -0.2647070036
 C          7.9900665275       -2.9676466180       -0.3126943159
 C          8.9274689491       -1.9359138342       -0.2390237774
 N          8.6085910437       -0.6683059256       -0.1248590254
 C          7.3209677544       -0.3298192679       -0.0759428325
 C          6.9878637665        1.0804693213        0.0537243054
 N          7.9888061762        1.9578044470        0.1116763396
 C          7.7083085716        3.2339976681        0.2314543544
 C          6.4089230388        3.7385405212        0.3047052663
 C          5.3611002689        2.8465693197        0.2450743566
 C          5.6384235911        1.4817171382        0.1155232980
 C          4.5787674611        0.5008278011        0.0433010893
 N          3.3245909752        0.9064839297        0.0973846794
 C          2.3608057699       -0.0236907464        0.0261553426
 C          1.0084828531        0.3660192870        0.0933743039
 C         -2.0951432452       -0.6586311778        1.1600470072
 C         -1.4596814297       -1.2327699081        2.2648643084
 C         -2.1878563334       -1.6698474275        3.3525762255
 C         -3.5648429099       -1.5295225721        3.3721880167
 C         -4.1967433033       -0.9310449347        2.2983881928
 C         -3.4804856094       -0.4881230944        1.1965467626
 H         -8.2250560042        3.3235695428        1.6098546126
 H         -5.9412764218        4.0138132911        2.1761060600
 H         -4.0044948398        2.6246554714        1.5074253148
 H         -8.6352360945        1.2334226045        0.3597062118
 H         -8.5063176904       -1.0180924317       -0.9586079922
 H         -7.8589693666       -3.0887892953       -2.1382065718
 H         -5.5000423696       -3.7239887294       -2.3451505887
 H         -3.7240374842       -2.3012613155       -1.3733148994
 H         -4.9135503658        1.7080261045       -1.9802842964
 H         -3.5126812119        2.6459134189       -3.7792672215
 H         -1.0830370908        2.1545907866       -3.8018488919
 H         -0.0861656197        0.8127348520       -2.0348928640
 H         -0.4567450073       -2.6694488342       -0.1672624702
 H          1.9144086635       -3.3994148337       -0.2832095793
 H          5.8737420512       -3.3807357189       -0.3177038641
 H          8.3096732749       -3.9939553413       -0.4059926365
 H          9.9885737203       -2.1465999236       -0.2733509870
 H          8.5639168858        3.8956529415        0.2718830248
 H          6.2365164818        4.7989179636        0.4052321926
 H          4.3306469357        3.1642079678        0.2949620090
 H          0.7767333215        1.4136020562        0.2069033226
 H         -0.3851365814       -1.3304262865        2.2747005637
 H         -1.6731972925       -2.1166140328        4.1900196642
 H         -4.1392810616       -1.8739090826        4.2180606371
 H         -5.2689955055       -0.8034775571        2.3067574441
  73
  -119.509810010000       0.146762962462755      !
 C         -6.5586324589        3.4448993216        0.8504766073
 C         -5.1845214945        3.6210822461        0.7920168734
 C         -4.3435125183        2.5557637454        0.4988724532
 C         -4.9049612694        1.3199117171        0.2678469971
 C         -6.2933818456        1.1364304887        0.3257724119
 C         -7.1274630319        2.2026110953        0.6182538129
 C         -6.5866184517       -0.2604791740        0.0418586458
 C         -7.7885450520       -0.9456648117       -0.0199374019
 C         -7.7652796411       -2.2997800139       -0.3144250793
 C         -6.5665935661       -2.9580958956       -0.5432041281
 C         -5.3585476591       -2.2759904919       -0.4824050915
 C         -5.3771999333       -0.9305685066       -0.1899259876
 C         -4.2011147134        0.0179968298       -0.0638763507
 C         -3.4628608974        0.1388205749       -1.3732900616
 C         -4.1771045732        0.5096352527       -2.5028052013
 C         -3.5532494226        0.6791796237       -3.7243601685
 C         -2.1840233800        0.4965522843       -3.8124412792
 C         -1.4575129339        0.1288461869       -2.6981763872
 C         -2.0864515412       -0.0797465349       -1.4673209578
 N         -1.3456369785       -0.4594878104       -0.3545783516
 C          0.0422728112       -0.6876153937       -0.5028276711
 C          0.4758871781       -1.7991732715       -1.2657032226
 C          1.8030161023       -2.0684485205       -1.4182465135
 C          2.7672895234       -1.2315504967       -0.8130573007
 N          4.0706276621       -1.5011638941       -0.9571626692
 C          4.9374526449       -0.6912404908       -0.3783121973
 C          6.3502736829       -0.9632981154       -0.5122861852
 C          6.8149207487       -2.0709576908       -1.2292439483
 C          8.1723433019       -2.2831390479       -1.3243376187
 C          9.0267572886       -1.3758219352       -0.6956613475
 N          8.6104472993       -0.3321910294       -0.0180863101
 C          7.3006941194       -0.1113053190        0.0846419890
 C          6.8596093815        1.0503026515        0.8415491934
 N          7.7895461741        1.8329986447        1.3868957231
 C          7.4109338481        2.8856077892        2.0727468158
 C          6.0761574828        3.2425869204        2.2707968633
 C          5.1005620917        2.4445573757        1.7153378598
 C          5.4832282885        1.3178980036        0.9800902847
 C          4.5028679161        0.4447944247        0.3744297828
 N          3.2212517649        0.7138374254        0.5313472444
 C          2.3325855015       -0.1074199543       -0.0471598799
 C          0.9539861278        0.1452238095        0.0930657299
 C         -1.9373641085       -0.6316178140        0.8923753116
 C         -1.1844725115       -1.0791764079        1.9814919630
 C         -1.7638636376       -1.2522165499        3.2218130176
 C         -3.1110437573       -0.9928359559        3.4060778673
 C         -3.8689319452       -0.5794845382        2.3272944972
 C         -3.3032906992       -0.4025483042        1.0730681075
 H         -7.1936547935        4.2880307076        1.0801958206
 H         -4.7637928717        4.5985471102        0.9766254263
 H         -3.2729443942        2.6934552470        0.4525561629
 H         -8.1983866793        2.0708311210        0.6645108898
 H         -8.7247537716       -0.4374936256        0.1579674852
 H         -8.6929882273       -2.8506844110       -0.3661633241
 H         -6.5728626712       -4.0139549835       -0.7704929459
 H         -4.4247142203       -2.7900517798       -0.6590226658
 H         -5.2412673008        0.6707049952       -2.4134416339
 H         -4.1260059848        0.9642855852       -4.5931107297
 H         -1.6731785571        0.6463673040       -4.7518585968
 H         -0.3882767578        0.0117456024       -2.7820640117
 H         -0.2726808227       -2.4347236265       -1.7155247694
 H          2.1494067858       -2.9164447991       -1.9879324713
 H          6.0950322000       -2.7301623551       -1.6898699266
 H          8.5706564544       -3.1251196118       -1.8687589014
 H         10.1009794659       -1.4996775681       -0.7441356773
 H          8.2125934255        3.4803530127        2.4911340830
 H          5.8219147294        4.1202916224        2.8444379409
 H          4.0484912034        2.6585462324        1.8269491687
 H          0.6385612511        0.9945220276        0.6788906826
 H         -0.1364023234       -1.3006100327        1.8554004683
 H         -1.1569236576       -1.5956318034        4.0461522706
 H         -3.5677404189       -1.1213800950        4.3750511911
 H         -4.9249857801       -0.3904154023        2.4507405106
  73
  -119.509707870000       0.131727416892404      !
 C         -6.7557713229        3.1750902482        1.3243220700
 C         -5.3923339754        3.3431819918        1.5127284072
 C         -4.4930240828        2.3672896405        1.1041706410
 C         -4.9856523556        1.2281887760        0.5076277342
 C         -6.3630577918        1.0532593480        0.3154038967
 C         -7.2555735255        2.0300639505        0.7245728660
 C         -6.5793925798       -0.2333723676       -0.3292587455
 C         -7.7427741236       -0.8689403369       -0.7291394816
 C         -7.6455336739       -2.1151379846       -1.3282898539
 C         -6.4117167978       -2.7159437420       -1.5248359228
 C         -5.2416264044       -2.0825228570       -1.1266489872
 C         -5.3338529920       -0.8445090449       -0.5313772008
 C         -4.2105122132        0.0358910882       -0.0183226393
 C         -3.3045413600        0.4488970776       -1.1524160558
 C         -3.8665230122        1.0950786010       -2.2434742726
 C         -3.0989466761        1.4743647176       -3.3282484707
 C         -1.7443361967        1.1898182906       -3.3275547379
 C         -1.1681574341        0.5481021926       -2.2502579957
 C         -1.9335316685        0.1809917068       -1.1402520570
 N         -1.3470411268       -0.4695599924       -0.0615317021
 C          0.0367700619       -0.7690311498       -0.0944498456
 C          0.4363617018       -2.1143726896       -0.2791854982
 C          1.7559546977       -2.4502745278       -0.3375438802
 C          2.7446338561       -1.4502673530       -0.2020890720
 N          4.0409768146       -1.7797484332       -0.2660842638
 C          4.9319503670       -0.8177920911       -0.1165039980
 C          6.3377910479       -1.1441184500       -0.1920108081
 C          6.7711104332       -2.4493250828       -0.4478657111
 C          8.1231535324       -2.7025806082       -0.5161045273
 C          9.0037815611       -1.6364450842       -0.3254287793
 N          8.6170261363       -0.4067061898       -0.0806869495
 C          7.3130207994       -0.1433598707       -0.0103087185
 C          6.9051012680        1.2262196526        0.2635378535
 N          7.8577022297        2.1372716785        0.4561646915
 C          7.5090414338        3.3781201121        0.7028191215
 C          6.1842482182        3.8114945395        0.7726756543
 C          5.1853776269        2.8832039249        0.5775531535
 C          5.5357750251        1.5542142824        0.3187194688
 C          4.5303138386        0.5348612500        0.1190410445
 N          3.2565097852        0.8739916140        0.1620158802
 C          2.3434410330       -0.0945744183       -0.0007852671
 C          0.9715585872        0.2236294982        0.0436706480
 C         -2.0879253901       -0.8665616188        1.0436342622
 C         -1.4547536330       -1.4616431538        2.1385906682
 C         -2.1784238274       -1.8598276170        3.2439907437
 C         -3.5481977779       -1.6642742878        3.2889289138
 C         -4.1772347157       -1.0532362202        2.2205810042
 C         -3.4660665113       -0.6480323845        1.1010514214
 H         -7.4368947228        3.9476632962        1.6501065749
 H         -5.0260694919        4.2438495680        1.9829602606
 H         -3.4307032831        2.4978082721        1.2513425791
 H         -8.3183935155        1.9036202487        0.5804823001
 H         -8.7066056572       -0.4054798562       -0.5786652748
 H         -8.5428775355       -2.6255522199       -1.6462902079
 H         -6.3597733075       -3.6878266576       -1.9931776859
 H         -4.2805433914       -2.5509711228       -1.2824379202
 H         -4.9273210597        1.2975296082       -2.2364355652
 H         -3.5536518337        1.9775842225       -4.1673846605
 H         -1.1290642990        1.4644761180       -4.1712962933
 H         -0.1133017080        0.3235032906       -2.2725650001
 H         -0.3316879702       -2.8667983285       -0.3817125054
 H          2.0774323181       -3.4685781928       -0.4900830079
 H          6.0319279581       -3.2235940931       -0.5869092771
 H          8.4977208379       -3.6950205528       -0.7128571098
 H         10.0747964265       -1.7854719955       -0.3735677642
 H          8.3285627858        4.0689135461        0.8539542545
 H          5.9543045585        4.8457946020        0.9760031947
 H          4.1391423870        3.1454787911        0.6195352552
 H          0.6799194532        1.2525153264        0.1862846028
 H         -0.3853095031       -1.6050948039        2.1262108501
 H         -1.6660602908       -2.3194855178        4.0759603008
 H         -4.1180319643       -1.9745452868        4.1509874477
 H         -5.2430046104       -0.8807012408        2.2486278064
  73
  -119.509699880000       0.130618359773777      !
 C         -7.8671084018        2.2442767045        1.0982731465
 C         -6.6876841961        2.8387097374        1.5209480867
 C         -5.4582807574        2.2575123235        1.2395507275
 C         -5.4354987022        1.0771654313        0.5295380787
 C         -6.6257915402        0.4731404299        0.0993448348
 C         -7.8491702186        1.0568535492        0.3835822953
 C         -6.2909124950       -0.7473140445       -0.6184426072
 C         -7.0934518848       -1.6893364798       -1.2400143954
 C         -6.4881446462       -2.7683161802       -1.8644660784
 C         -5.1084232979       -2.9048020770       -1.8707530790
 C         -4.2989926710       -1.9636435063       -1.2485487134
 C         -4.8972284041       -0.8919589151       -0.6246847315
 C         -4.2338204960        0.2576631398        0.1158935608
 C         -3.3252965647        1.0012134297       -0.8330215955
 C         -3.8894083795        1.8156258774       -1.8028679275
 C         -3.1126240582        2.4204446218       -2.7732214042
 C         -1.7503493035        2.1794312810       -2.7917795269
 C         -1.1705131784        1.3770912861       -1.8295154786
 C         -1.9411189160        0.7975946088       -0.8197515377
 N         -1.3624476715        0.0041545486        0.1673850151
 C         -0.0128199279       -0.4007021918        0.0848573474
 C          0.2504263549       -1.7881314046       -0.0358293144
 C          1.5255829106       -2.2567427957       -0.1289337564
 C          2.6121217347       -1.3537194614       -0.0984534316
 N          3.8656437586       -1.8140015089       -0.1854208062
 C          4.8513718237       -0.9370715819       -0.1350703427
 C          6.2145049439       -1.4079995839       -0.2241914384
 C          6.5083028454       -2.7679570738       -0.3692734620
 C          7.8256159726       -3.1616880052       -0.4486122011
 C          8.8129004623       -2.1772284930       -0.3802355102
 N          8.5576531201       -0.8975018180       -0.2435664808
 C          7.2890292599       -0.4984258003       -0.1646451878
 C          7.0266383886        0.9244426746       -0.0122205083
 N          8.0697299229        1.7512771374        0.0447059796
 C          7.8529108176        3.0379963691        0.1804937584
 C          6.5803497764        3.6044769182        0.2694499474
 C          5.4898176107        2.7651272405        0.2132079059
 C          5.6991450325        1.3898476842        0.0699072191
 C          4.5923791006        0.4618307693        0.0080020539
 N          3.3601700934        0.9271875610        0.0847592974
 C          2.3518854240        0.0440413411        0.0339481557
 C          1.0217091745        0.4990426325        0.1294363450
 C         -2.0940229075       -0.4043590491        1.2779126232
 C         -1.4354434787       -0.9084626071        2.4022446688
 C         -2.1459607556       -1.3106551056        3.5149857642
 C         -3.5257788799       -1.2029697440        3.5370531909
 C         -4.1818327555       -0.6788544843        2.4384348636
 C         -3.4836111792       -0.2729978239        1.3116485712
 H         -8.8121185366        2.7133973893        1.3300768591
 H         -6.7260474562        3.7640103465        2.0765093530
 H         -4.5394494625        2.7195646955        1.5701523298
 H         -8.7703292190        0.5973107536        0.0573377373
 H         -8.1684383722       -1.5865349943       -1.2401826005
 H         -7.0982993978       -3.5124983409       -2.3550154425
 H         -4.6583246563       -3.7520681447       -2.3671055025
 H         -3.2238909732       -2.0690319959       -1.2603790747
 H         -4.9590025990        1.9635326077       -1.8003928244
 H         -3.5687220282        3.0539569677       -3.5180012748
 H         -1.1298651260        2.6162867795       -3.5598681963
 H         -0.1098925423        1.1896416228       -1.8743494583
 H         -0.5895423610       -2.4670898469       -0.0542136271
 H          1.7392868411       -3.3093119304       -0.2283218793
 H          5.6922513759       -3.4728956444       -0.4156630373
 H          8.0934946905       -4.2005906546       -0.5608572357
 H          9.8618162869       -2.4379772946       -0.4389080799
 H          8.7401866739        3.6565521528        0.2217110549
 H          6.4607763584        4.6707825087        0.3794701605
 H          4.4765516740        3.1318422272        0.2763568820
 H          0.8462007441        1.5564039974        0.2521144779
 H         -0.3584558197       -0.9773762067        2.4058975293
 H         -1.6157855109       -1.7020938890        4.3702009096
 H         -4.0860127427       -1.5188914210        4.4034153856
 H         -5.2574641189       -0.5853052488        2.4481621395
  73
  -119.509479150000       0.103410286508829      !
 C         -8.0264161610        2.0967591156        0.8547088448
 C         -6.9101831407        2.7762054590        1.3189923176
 C         -5.6342453089        2.2633496194        1.1254199044
 C         -5.5000617105        1.0645170075        0.4593238737
 C         -6.6265896377        0.3752773249       -0.0131790853
 C         -7.8968898412        0.8904813345        0.1845498822
 C         -6.1806746995       -0.8412498617       -0.6748845151
 C         -6.8898701602       -1.8501240570       -1.3051101203
 C         -6.1871758345       -2.9047469763       -1.8660647561
 C         -4.8029223292       -2.9507435109       -1.8038715973
 C         -4.0869509481       -1.9424260327       -1.1726491942
 C         -4.7824090459       -0.8961432515       -0.6092670959
 C         -4.2315624473        0.3096276449        0.1361089698
 C         -3.3067753190        1.0763685673       -0.7776905230
 C         -3.8453052745        1.8974067222       -1.7559837187
 C         -3.0423018547        2.5098681106       -2.7003232476
 C         -1.6799520609        2.2703489294       -2.6834151612
 C         -1.1252086850        1.4628563751       -1.7104240556
 C         -1.9227495984        0.8747423464       -0.7274436856
 N         -1.3731326685        0.0751965223        0.2720981769
 C         -0.0306155607       -0.3553512307        0.2028035905
 C          0.2088640096       -1.7448013504        0.0622429184
 C          1.4751284251       -2.2307982347       -0.0615006444
 C          2.5752942894       -1.3442277945       -0.0425684818
 N          3.8178339110       -1.8170591602       -0.1964473418
 C          4.8167788897       -0.9546648939       -0.1579136980
 C          6.1665812543       -1.4347658019       -0.3461820793
 C          6.4327732194       -2.7864441900       -0.5889893981
 C          7.7374581219       -3.1876402902       -0.7719237238
 C          8.7402563310       -2.2188246820       -0.7055436609
 N          8.5112600339       -0.9476138881       -0.4748647860
 C          7.2552268237       -0.5414905230       -0.2951188433
 C          7.0223124193        0.8716540325       -0.0392421349
 N          8.0795352953        1.6799739919        0.0236331184
 C          7.8888542715        2.9577129519        0.2530250896
 C          6.6303762908        3.5333015749        0.4355821061
 C          5.5255964083        2.7131528672        0.3744204456
 C          5.7072591053        1.3473635679        0.1336656556
 C          4.5848406756        0.4390979644        0.0626097564
 N          3.3630819353        0.9181030261        0.1978569662
 C          2.3401924754        0.0525755439        0.1382876050
 C          1.0189710283        0.5258805145        0.2623339844
 C         -2.1287188259       -0.3114260691        1.3735248395
 C         -1.4959424270       -0.8048547990        2.5165006302
 C         -2.2314420696       -1.1717596876        3.6255536386
 C         -3.6088070405       -1.0358848585        3.6242274273
 C         -4.2402742224       -0.5307388752        2.5019780026
 C         -3.5177618519       -0.1659481993        1.3771912565
 H         -9.0093399631        2.5142630986        1.0172242736
 H         -7.0350426841        3.7153410058        1.8375027079
 H         -4.7651104853        2.7922032374        1.4888112565
 H         -8.7687133007        0.3650326286       -0.1759991149
 H         -7.9679218615       -1.8182314418       -1.3586320962
 H         -6.7236832713       -3.7004886070       -2.3618054808
 H         -4.2754994770       -3.7794467625       -2.2531747544
 H         -3.0082174316       -1.9776558080       -1.1323823420
 H         -4.9147293986        2.0433109169       -1.7833456047
 H         -3.4786277028        3.1467235402       -3.4540586538
 H         -1.0391390539        2.7124195247       -3.4316214311
 H         -0.0632723643        1.2787436664       -1.7272339429
 H         -0.6414798368       -2.4108473806        0.0441257307
 H          1.6705241398       -3.2842257035       -0.1863193872
 H          5.6055830864       -3.4787199374       -0.6310035145
 H          7.9838455980       -4.2202368751       -0.9643880183
 H          9.7798537521       -2.4853971741       -0.8459580379
 H          8.7864479064        3.5613154600        0.2929271387
 H          6.5322611896        4.5917615077        0.6200940337
 H          4.5218532337        3.0876032463        0.5067516412
 H          0.8611621807        1.5829024602        0.4093296763
 H         -0.4206558663       -0.8962228042        2.5351548027
 H         -1.7230353371       -1.5602441566        4.4952550983
 H         -4.1877363685       -1.3209215903        4.4889926564
 H         -5.3143700625       -0.4220891575        2.4922634030
  73
  -119.509407360000       9.584541489818092E-002 !
 C         -6.5996327292        3.4804873690        0.5214899163
 C         -5.2245859213        3.6552246484        0.4856204440
 C         -4.3752445904        2.5717214381        0.3041265915
 C         -4.9296265815        1.3194838105        0.1615579030
 C         -6.3189071655        1.1373205694        0.1967420788
 C         -7.1612283264        2.2215768880        0.3778673837
 C         -6.6036312191       -0.2784470829        0.0167348850
 C         -7.8029787066       -0.9699698713       -0.0194095101
 C         -7.7711403257       -2.3432197839       -0.2040483543
 C         -6.5665555195       -3.0141845845       -0.3498072480
 C         -5.3610516637       -2.3256614797       -0.3155526423
 C         -5.3881592645       -0.9610824622       -0.1330796030
 C         -4.2169434274       -0.0020915010       -0.0584306579
 C         -3.4628157063        0.0410178302       -1.3632872543
 C         -4.1726856453        0.2887684633       -2.5289478969
 C         -3.5328631365        0.4148649569       -3.7472338435
 C         -2.1520869634        0.3292710343       -3.7934540103
 C         -1.4310179564        0.0815991734       -2.6432369610
 C         -2.0748290450       -0.1051689939       -1.4160101000
 N         -1.3382157420       -0.3883955654       -0.2698600725
 C          0.0446072956       -0.6413035583       -0.4058626930
 C          0.4580575560       -1.7407373781       -1.1991866403
 C          1.7789741838       -2.0120026145       -1.3901782991
 C          2.7609365741       -1.1947037069       -0.7866525266
 N          4.0580203302       -1.4239717526       -1.0221616460
 C          4.9417738009       -0.6444433990       -0.4271808643
 C          6.3465319652       -0.8343369540       -0.7064463915
 C          6.7838365820       -1.7876062689       -1.6320372490
 C          8.1335870601       -1.9109721503       -1.8758857365
 C          9.0080160492       -1.0737916033       -1.1807661092
 N          8.6178496552       -0.1779151286       -0.3051063826
 C          7.3157034224       -0.0437677055       -0.0575283765
 C          6.9022774971        0.9549457750        0.9163354399
 N          7.8510554452        1.6507569961        1.5414418983
 C          7.4976405349        2.5557332833        2.4232549098
 C          6.1715330401        2.8415459324        2.7519593926
 C          5.1768385291        2.1335338129        2.1146057608
 C          5.5322160911        1.1628072379        1.1723713987
 C          4.5314830184        0.3834925538        0.4784383845
 N          3.2549645851        0.6377762912        0.6937343215
 C          2.3484142212       -0.1188015568        0.0571735459
 C          0.9749892822        0.1517277787        0.2166955089
 C         -1.9518059067       -0.5250618432        0.9728681843
 C         -1.2122907158       -0.8980601136        2.0985436903
 C         -1.8145949140       -1.0321521485        3.3329401542
 C         -3.1728239046       -0.8073646040        3.4765395007
 C         -3.9175773393       -0.4704766511        2.3628502166
 C         -3.3288685181       -0.3346533039        1.1139192058
 H         -7.2412677901        4.3380215459        0.6623532487
 H         -4.8095870654        4.6458693405        0.5991382447
 H         -3.3039440477        2.7084260494        0.2741077927
 H         -8.2329741839        2.0913232099        0.4050152682
 H         -8.7436680345       -0.4519477105        0.0948667399
 H         -8.6967306962       -2.8993097832       -0.2339347048
 H         -6.5660574311       -4.0849825403       -0.4907110338
 H         -4.4226885238       -2.8494741467       -0.4273574458
 H         -5.2463380307        0.3889637623       -2.4707683623
 H         -4.1021201390        0.5993481297       -4.6449682259
 H         -1.6282131230        0.4609082344       -4.7283507462
 H         -0.3543959699        0.0427636153       -2.6977234939
 H         -0.3030228865       -2.3600202187       -1.6506423678
 H          2.1068759583       -2.8413986019       -1.9968408471
 H          6.0489772949       -2.3980053690       -2.1347121528
 H          8.5108434576       -2.6307225217       -2.5855276533
 H         10.0767974429       -1.1311109563       -1.3419084238
 H          8.3137500723        3.0849051518        2.8981527626
 H          5.9388120455        3.5957900949        3.4874599535
 H          4.1299462082        2.2993974127        2.3188104075
 H          0.6800467836        0.9871181048        0.8324425865
 H         -0.1559715581       -1.0950369747        2.0078223858
 H         -1.2160078722       -1.3180371462        4.1848822115
 H         -3.6475694202       -0.9052472969        4.4404453662
 H         -4.9820063324       -0.3118118674        2.4532901346
  73
  -119.509331480000       8.845029957636867E-002 !
 C         -8.1492728114        1.8533075636        0.8147143747
 C         -7.0928900330        2.5641390072        1.3642235892
 C         -5.7834733757        2.1320980754        1.1998068488
 C         -5.5552548516        0.9811992667        0.4769951546
 C         -6.6210671116        0.2592584390       -0.0794283027
 C         -7.9251936738        0.6945841059        0.0881298794
 C         -6.0812035888       -0.8950111364       -0.7811571106
 C         -6.7077900609       -1.9040140442       -1.4933507855
 C         -5.9264302223       -2.8892710235       -2.0759142462
 C         -4.5456047955       -2.8660914303       -1.9544699018
 C         -3.9122426291       -1.8569687010       -1.2413125111
 C         -4.6858966618       -0.8799918859       -0.6555283120
 C         -4.2340735454        0.3161121984        0.1686436128
 C         -3.3223807147        1.1742792429       -0.6755490085
 C         -3.8721431156        2.0352478659       -1.6121897184
 C         -3.0749769059        2.7273176655       -2.5049939904
 C         -1.7071547434        2.5223543031       -2.4846428851
 C         -1.1413877982        1.6765090742       -1.5510094894
 C         -1.9328106392        1.0152743446       -0.6111854945
 N         -1.3758443374        0.1865832103        0.3615798053
 C         -0.0416730177       -0.2602962431        0.2790975289
 C          0.1708461184       -1.6582546018        0.1688553497
 C          1.4245875658       -2.1733908505        0.0442750059
 C          2.5427408229       -1.3094366752        0.0244552669
 N          3.7736625234       -1.8130257881       -0.1203975200
 C          4.7896500997       -0.9694001675       -0.1294276702
 C          6.1286628181       -1.4861917602       -0.2953840746
 C          6.3685609216       -2.8563630209       -0.4433991546
 C          7.6646263089       -3.2940118030       -0.6014704819
 C          8.6855978541       -2.3420180619       -0.6068915487
 N          8.4811040239       -1.0533371371       -0.4688903749
 C          7.2335427738       -0.6119282726       -0.3146739307
 C          7.0271427544        0.8202427542       -0.1642939416
 N          8.0970925177        1.6136847251       -0.1910890830
 C          7.9307756469        2.9083644288       -0.0585099408
 C          6.6861324558        3.5165435322        0.1123010294
 C          5.5684996072        2.7123320182        0.1420880831
 C          5.7236539174        1.3294197597        0.0016702040
 C          4.5856574599        0.4378933895        0.0185216563
 N          3.3756355113        0.9449571835        0.1612224415
 C          2.3364491558        0.0966925131        0.1628170855
 C          1.0274918148        0.5995910045        0.3034131897
 C         -2.1403467076       -0.2507229693        1.4396027162
 C         -1.5106449874       -0.7315035103        2.5896122884
 C         -2.2531209816       -1.1544087539        3.6737246294
 C         -3.6354879998       -1.0887353194        3.6392139825
 C         -4.2645898016       -0.5907294388        2.5125031856
 C         -3.5338269622       -0.1672783657        1.4136598676
 H         -9.1597407697        2.2082152999        0.9552724318
 H         -7.2912561587        3.4645927097        1.9265418092
 H         -4.9606875731        2.6855367116        1.6284768747
 H         -8.7507899321        0.1439858639       -0.3377895879
 H         -7.7826696219       -1.9237238034       -1.5948861262
 H         -6.3977986012       -3.6842802052       -2.6349832438
 H         -3.9553877641       -3.6410466528       -2.4213258183
 H         -2.8357004305       -1.8387433630       -1.1578152504
 H         -4.9450360150        2.1496787076       -1.6492932297
 H         -3.5198864891        3.3965664378       -3.2249219747
 H         -1.0701161349        3.0230595445       -3.1982806534
 H         -0.0756400369        1.5183264430       -1.5693354985
 H         -0.6918163695       -2.3084743754        0.1818019015
 H          1.5967951801       -3.2338988481       -0.0512688400
 H          5.5288366200       -3.5344776700       -0.4298049884
 H          7.8911252996       -4.3423646091       -0.7184114273
 H          9.7198436374       -2.6379378687       -0.7272332904
 H          8.8376230289        3.4984983405       -0.0889105228
 H          6.6081262371        4.5875123273        0.2169628371
 H          4.5741681535        3.1123453163        0.2702710019
 H          0.8986709772        1.6615249052        0.4416574129
 H         -0.4327181082       -0.7660952040        2.6333398547
 H         -1.7471748295       -1.5292081717        4.5508124416
 H         -4.2200471949       -1.4201117618        4.4834478392
 H         -5.3422159222       -0.5355453173        2.4779850088
