  73
  -119.077387785800       0.309911567220212      !
 C         -6.7334021212        3.3466659428        0.9677789713
 C         -5.3681079777        3.5292910279        1.1269429206
 C         -4.4756492001        2.5065373052        0.8344779390
 C         -4.9769603191        1.3062034168        0.3828336624
 C         -6.3562758018        1.1164011260        0.2207844914
 C         -7.2419328350        2.1400993479        0.5137083413
 C         -6.5822499283       -0.2376199757       -0.2623038905
 C         -7.7508597115       -0.9108883198       -0.5759418581
 C         -7.6628103742       -2.2208821446       -1.0204741335
 C         -6.4328953720       -2.8473886295       -1.1497053630
 C         -5.2575967957       -2.1764909465       -0.8375260274
 C         -5.3406924119       -0.8751156438       -0.3958815073
 C         -4.2103447559        0.0550774875        0.0007024028
 C         -3.3094830336        0.3232312707       -1.1800036220
 C         -3.8752341073        0.8356042527       -2.3380975824
 C         -3.1126118797        1.0769627510       -3.4650047942
 C         -1.7592992790        0.7876220531       -3.4373702759
 C         -1.1794156071        0.2779443407       -2.2935550180
 C         -1.9396278291        0.0517120548       -1.1430867039
 N         -1.3494632237       -0.4666171845        0.0031535899
 C          0.0327779668       -0.7749880361       -0.0009321878
 C          0.4252573299       -2.1348346356       -0.0237745610
 C          1.7429652101       -2.4821144961       -0.0483522251
 C          2.7368830567       -1.4781665166       -0.0403147080
 N          4.0313356917       -1.8196348899       -0.0711361042
 C          4.9274679022       -0.8512468985       -0.0439351721
 C          6.3313589375       -1.1915393704       -0.0871692482
 C          6.7573095213       -2.5203206561       -0.1856485372
 C          8.1077733149       -2.7869237972       -0.2302102521
 C          8.9942735734       -1.7100994801       -0.1747611480
 N          8.6144827196       -0.4578145940       -0.0784411530
 C          7.3121131794       -0.1811833139       -0.0332414462
 C          6.9119573198        1.2135426724        0.0751701350
 N          7.8697517002        2.1362894417        0.1509184667
 C          7.5281153898        3.3996374559        0.2475829378
 C          6.2057104067        3.8450904857        0.2718121054
 C          5.2015559419        2.9051681593        0.1959270294
 C          5.5444631189        1.5528451939        0.0978253071
 C          4.5332860864        0.5220129769        0.0284695235
 N          3.2612863511        0.8704015713        0.0371336607
 C          2.3429495787       -0.1060327013       -0.0022694169
 C          0.9727903503        0.2222671225        0.0109374137
 C         -2.0853484272       -0.7232321674        1.1522981890
 C         -1.4481585835       -1.1847757964        2.3076875692
 C         -2.1668340326       -1.4426251850        3.4571126583
 C         -3.5354265261       -1.2360266130        3.4856229381
 C         -4.1682485146       -0.7554471161        2.3546932660
 C         -3.4621297116       -0.4922744124        1.1904625268
 H         -7.4090883460        4.1564623411        1.2014703557
 H         -4.9949862647        4.4783194549        1.4827448073
 H         -3.4118813881        2.6484282745        0.9589173580
 H         -8.3061629333        2.0026285645        0.3918374523
 H         -8.7116879631       -0.4276782463       -0.4773192179
 H         -8.5643348650       -2.7613836458       -1.2694412849
 H         -6.3881257241       -3.8690321490       -1.4973240228
 H         -4.2995715521       -2.6652807312       -0.9408057748
 H         -4.9350600275        1.0428764412       -2.3497470503
 H         -3.5701877645        1.4773395152       -4.3563290628
 H         -1.1479716020        0.9550550005       -4.3115218201
 H         -0.1257233172        0.0468711944       -2.2943495972
 H         -0.3467370587       -2.8901746969       -0.0302925098
 H          2.0589814012       -3.5130322721       -0.0783639916
 H          6.0138617797       -3.3019082048       -0.2259313397
 H          8.4767228530       -3.7977882436       -0.3075316479
 H         10.0643025667       -1.8693635081       -0.2104283159
 H          8.3516027922        4.0994121440        0.3095226445
 H          5.9816063857        4.8975582060        0.3497985156
 H          4.1567712037        3.1759753156        0.2116469053
 H          0.6865982494        1.2623353919        0.0296523391
 H         -0.3794574125       -1.3341728829        2.3068506914
 H         -1.6514516828       -1.8009240616        4.3357354852
 H         -4.1013642053       -1.4368294813        4.3820139019
 H         -5.2330508478       -0.5753047476        2.3675435167
  73
  -119.077347391100       0.296943393569264      !
 C         -7.0099899651        3.1502765857        1.0505686242
 C         -5.6705946918        3.4156346633        1.2920055081
 C         -4.6941929034        2.4757620363        0.9892635062
 C         -5.0860135724        1.2735054611        0.4440624286
 C         -6.4391569667        0.9996605294        0.1998960931
 C         -7.4086371861        1.9411208732        0.5028847462
 C         -6.5442209234       -0.3352152268       -0.3701429461
 C         -7.6453188689       -1.0668721334       -0.7826960724
 C         -7.4421424868       -2.3377232459       -1.2969065117
 C         -6.1654859105       -2.8690747508       -1.3983001570
 C         -5.0578947998       -2.1397756084       -0.9864644088
 C         -5.2557175592       -0.8770289417       -0.4744984863
 C         -4.2147639539        0.1035914517        0.0327255922
 C         -3.2815786976        0.4907502511       -1.0878677347
 C         -3.8232481898        1.0927400145       -2.2142355748
 C         -3.0385938788        1.4175682207       -3.3039511884
 C         -1.6889228427        1.1122874473       -3.2748483917
 C         -1.1328602208        0.5166826730       -2.1612109796
 C         -1.9121060854        0.2172539492       -1.0404096797
 N         -1.3461635673       -0.3775199240        0.0834564368
 C          0.0283792018       -0.7063048910        0.0898454213
 C          0.3976707938       -2.0732407314        0.1307401901
 C          1.7081033785       -2.4460488800        0.1200261048
 C          2.7214418959       -1.4625779160        0.0688506178
 N          4.0087437830       -1.8294095048        0.0547496272
 C          4.9225890991       -0.8777703398        0.0086385239
 C          6.3197529980       -1.2464361817       -0.0098533723
 C          6.7209258953       -2.5862969429        0.0166939238
 C          8.0660960631       -2.8811062096       -0.0038584650
 C          8.9724868013       -1.8205162162       -0.0507633858
 N          8.6161032313       -0.5579793534       -0.0759545563
 C          7.3191161132       -0.2540620647       -0.0563114737
 C          6.9446566078        1.1515341520       -0.0848645038
 N          7.9192469249        2.0589871869       -0.1258626499
 C          7.6009100418        3.3316092255       -0.1523680980
 C          6.2869086093        3.8023940286       -0.1415794109
 C          5.2659383417        2.8788686507       -0.0991414332
 C          5.5839060355        1.5171058143       -0.0688863153
 C          4.5537788012        0.5037190278       -0.0232562501
 N          3.2883292983        0.8761459643       -0.0142787535
 C          2.3524168461       -0.0836146053        0.0303898876
 C          0.9893184555        0.2713379899        0.0471120037
 C         -2.1052547533       -0.6740398092        1.2098369117
 C         -1.4878305520       -1.1492199983        2.3706467469
 C         -2.2293564346       -1.4561934947        3.4932143356
 C         -3.6025484959       -1.2818539714        3.4919884521
 C         -4.2157517507       -0.7771425437        2.3609381202
 C         -3.4859578938       -0.4648097546        1.2237177959
 H         -7.7522460401        3.8965494680        1.2935279818
 H         -5.3837377890        4.3646095198        1.7205577833
 H         -3.6506173166        2.6824258348        1.1776999523
 H         -8.4533043812        1.7388700105        0.3179374448
 H         -8.6416739938       -0.6572494719       -0.7069391235
 H         -8.2891284033       -2.9225736478       -1.6246960267
 H         -6.0313583983       -3.8614990260       -1.8028408418
 H         -4.0631099779       -2.5535440117       -1.0681848594
 H         -4.8827872273        1.3010221146       -2.2315733956
 H         -3.4768890393        1.8889651837       -4.1697910723
 H         -1.0609301707        1.3347459056       -4.1245872376
 H         -0.0822128810        0.2738630469       -2.1671228721
 H         -0.3874796560       -2.8142704700        0.1627164069
 H          2.0043362450       -3.4829905474        0.1424891550
 H          5.9631190422       -3.3541051795        0.0527170580
 H          8.4159554883       -3.9015157190        0.0155813023
 H         10.0393060182       -2.0024107775       -0.0692698549
 H          8.4364920355        4.0187154577       -0.1853398554
 H          6.0829988793        4.8615710775       -0.1658165635
 H          4.2264299518        3.1692770894       -0.0880918503
 H          0.7257131808        1.3172060261        0.0215655851
 H         -0.4161185137       -1.2704491477        2.3975685117
 H         -1.7275652300       -1.8267496522        4.3745594566
 H         -4.1871134404       -1.5234768557        4.3660129813
 H         -5.2837533872       -0.6173004587        2.3518239165
  73
  -119.076587989900       0.132946540213894      !
 C         -7.8515984241        2.4027620825        0.8446969857
 C         -6.6675064450        3.0390052162        1.1855298664
 C         -5.4420877652        2.4212222008        0.9731600759
 C         -5.4280072597        1.1619176127        0.4147610582
 C         -6.6230467038        0.5152801515        0.0677017111
 C         -7.8424158653        1.1358808172        0.2825528038
 C         -6.2970934200       -0.7863628773       -0.4947498807
 C         -7.1068222884       -1.7940556530       -0.9914607204
 C         -6.5093643718       -2.9451205689       -1.4799559082
 C         -5.1303164297       -3.0883048760       -1.4750617287
 C         -4.3136973325       -2.0814257701       -0.9776450183
 C         -4.9041195042       -0.9377082214       -0.4888588164
 C         -4.2320168423        0.2914269436        0.1008037031
 C         -3.3247057699        0.9071096457       -0.9367145711
 C         -3.8897801976        1.5979572336       -1.9976161612
 C         -3.1149321212        2.0739888218       -3.0386684417
 C         -1.7538590145        1.8256515812       -3.0329278232
 C         -1.1730425846        1.1457646492       -1.9811115216
 C         -1.9414099603        0.6997102678       -0.9041157542
 N         -1.3615994686        0.0317414137        0.1712834814
 C         -0.0142155472       -0.3870351870        0.1338993978
 C          0.2422102433       -1.7800410838        0.1849296000
 C          1.5147873772       -2.2630142998        0.1452606524
 C          2.6055085072       -1.3686724229        0.0590815802
 N          3.8565183622       -1.8425110301        0.0245610238
 C          4.8464085774       -0.9710905379       -0.0382463945
 C          6.2069690083       -1.4563136805       -0.0740440477
 C          6.4939526503       -2.8252359808       -0.0507524239
 C          7.8090879174       -3.2324142878       -0.0862152554
 C          8.8011041511       -2.2520687031       -0.1444638022
 N          8.5522693023       -0.9639952227       -0.1663251622
 C          7.2858442896       -0.5518108257       -0.1321426065
 C          7.0305849509        0.8802879562       -0.1560737214
 N          8.0776436076        1.7025240996       -0.2063896887
 C          7.8672633939        2.9972328358       -0.2301526962
 C          6.5977019075        3.5767932755       -0.2067358525
 C          5.5031506445        2.7424629879       -0.1539915913
 C          5.7056052534        1.3589843476       -0.1266804698
 C          4.5943948534        0.4360513762       -0.0685027314
 N          3.3646715626        0.9135531627       -0.0448314971
 C          2.3521950781        0.0360212594        0.0183833689
 C          1.0245496397        0.5060626833        0.0623341813
 C         -2.0896867419       -0.2323647141        1.3269192932
 C         -1.4280130660       -0.5966387268        2.5022754946
 C         -2.1350038325       -0.8543047549        3.6592364387
 C         -3.5142025972       -0.7377436284        3.6735694678
 C         -4.1731378771       -0.3504399393        2.5212388418
 C         -3.4784932156       -0.0908156312        1.3499385558
 H         -8.7933709038        2.9017526708        1.0205501130
 H         -6.6990528638        4.0261781236        1.6223315970
 H         -4.5196184259        2.9160178515        1.2401213924
 H         -8.7671807480        0.6441268460        0.0196137612
 H         -8.1813242359       -1.6866355052       -0.9998630057
 H         -7.1251969015       -3.7412419670       -1.8719707075
 H         -4.6864096042       -3.9927918595       -1.8645027794
 H         -3.2391491675       -2.1928997882       -0.9808287357
 H         -4.9586745638        1.7504348473       -2.0090061761
 H         -3.5717324248        2.6126645247       -3.8542800381
 H         -1.1350959503        2.1608596745       -3.8518120335
 H         -0.1135018904        0.9488475753       -2.0068171449
 H         -0.6008808675       -2.4517942976        0.2543197416
 H          1.7232792306       -3.3208547146        0.1761468323
 H          5.6745275848       -3.5263587361       -0.0060330099
 H          8.0717533735       -4.2785599820       -0.0700067751
 H          9.8485445775       -2.5233744819       -0.1747712690
 H          8.7574982094        3.6116385585       -0.2696007564
 H          6.4834511254        4.6491054624       -0.2291678488
 H          4.4918571616        3.1192918336       -0.1325196171
 H          0.8543853478        1.5713502276        0.0538047577
 H         -0.3513409716       -0.6700108813        2.5099288209
 H         -1.6025115503       -1.1394692336        4.5541309831
 H         -4.0717031284       -0.9410823222        4.5747345319
 H         -5.2482789794       -0.2509716737        2.5238046735
  73
  -119.076559862600       0.129047806711942      !
 C         -6.5797678641        3.5550475709        0.0958532264
 C         -5.2040354697        3.7161451067        0.0327547117
 C         -4.3609358936        2.6136398903       -0.0115767024
 C         -4.9222010671        1.3565404528        0.0095587752
 C         -6.3122071058        1.1880691566        0.0729823382
 C         -7.1482845253        2.2912352374        0.1168255299
 C         -6.6048038612       -0.2374973741        0.0769354536
 C         -7.8077446894       -0.9213111673        0.1341773971
 C         -7.7835937182       -2.3070544255        0.1269068791
 C         -6.5830364628       -2.9978128972        0.0638276873
 C         -5.3739627518       -2.3172501669        0.0050729268
 C         -5.3934359948       -0.9404098416        0.0112889040
 C         -4.2171178341        0.0137524149       -0.0419336387
 C         -3.4685478708       -0.1148352545       -1.3443644402
 C         -4.1823048090       -0.0145446287       -2.5295029400
 C         -3.5472402953       -0.0491073534       -3.7562842154
 C         -2.1671270967       -0.1475494488       -3.7963114134
 C         -1.4422390789       -0.2498024245       -2.6265410023
 C         -2.0815562563       -0.2742429430       -1.3831034115
 N         -1.3413201566       -0.4123640663       -0.2128686459
 C          0.0396064772       -0.6882526846       -0.3205060988
 C          0.4440457176       -1.8825320236       -0.9679506821
 C          1.7627328564       -2.1833290240       -1.1275400750
 C          2.7514259904       -1.3008855522       -0.6373866254
 N          4.0462945533       -1.5656037068       -0.8464185751
 C          4.9365542406       -0.7211707665       -0.3595330853
 C          6.3390988138       -0.9530406305       -0.6174078291
 C          6.7675397980       -2.0194395005       -1.4148461799
 C          8.1155670831       -2.1804893895       -1.6459153264
 C          8.9972327917       -1.2659993766       -1.0670697373
 N          8.6154214880       -0.2631770384       -0.3119724482
 C          7.3150677963       -0.0912199834       -0.0787638300
 C          6.9109453558        1.0263003538        0.7606369645
 N          7.8659420371        1.7912074249        1.2878840089
 C          7.5209540839        2.8036396031        2.0477805566
 C          6.1977565480        3.1365357220        2.3421018949
 C          5.1967292375        2.3582132751        1.8044435687
 C          5.5430842020        1.2728219043        0.9930418809
 C          4.5354120322        0.4165702761        0.4084300138
 N          3.2611443443        0.7033942814        0.5941333247
 C          2.3480196810       -0.1234786393        0.0631552219
 C          0.9766828802        0.1728470689        0.1918249334
 C         -1.9500979706       -0.3852974474        1.0394096991
 C         -1.2074996185       -0.6150882446        2.2008310908
 C         -1.8050155927       -0.5865984581        3.4444743852
 C         -3.1614559344       -0.3377608288        3.5631573121
 C         -3.9094202395       -0.1422176415        2.4182698709
 C         -3.3255547986       -0.1707773476        1.1600408704
 H         -7.2164758554        4.4270957308        0.1280686745
 H         -4.7835875780        4.7108600411        0.0168481985
 H         -3.2891075192        2.7394475199       -0.0628651791
 H         -8.2205385881        2.1714599353        0.1644418397
 H         -8.7453165998       -0.3877249213        0.1846458339
 H         -8.7120781695       -2.8572652385        0.1719790453
 H         -6.5885185856       -4.0778248924        0.0612931956
 H         -4.4387350516       -2.8562496220       -0.0421937908
 H         -5.2551752233        0.0982125990       -2.4806328826
 H         -4.1195220089        0.0219862491       -4.6681251759
 H         -1.6467307003       -0.1396697306       -4.7423185807
 H         -0.3660757759       -0.3012497918       -2.6796220571
 H         -0.3221085616       -2.5503328804       -1.3334867088
 H          2.0838003624       -3.0854128849       -1.6241456421
 H          6.0274245810       -2.6851368784       -1.8324150469
 H          8.4860824909       -2.9872989578       -2.2588845669
 H         10.0649926393       -1.3493988226       -1.2235288747
 H          8.3417887142        3.3847725320        2.4479063402
 H          5.9720600251        3.9800681490        2.9757567830
 H          4.1515911413        2.5546567459        1.9896195005
 H          0.6886439927        1.0818574368        0.6965489058
 H         -0.1525899339       -0.8279012680        2.1321537558
 H         -1.2041139595       -0.7642855404        4.3237846123
 H         -3.6324282013       -0.3087198049        4.5334256185
 H         -4.9726325445        0.0326083975        2.4916076118
  73
  -119.076498877900       0.120982902675559      !
 C         -8.0129828544        2.2269272068        0.6190180760
 C         -6.8916726706        2.9527373793        0.9919063935
 C         -5.6189411767        2.4134478220        0.8583771465
 C         -5.4931056633        1.1409816020        0.3446808021
 C         -6.6247905481        0.4044920549       -0.0351191789
 C         -7.8918560426        0.9465955475        0.1022247657
 C         -6.1872924703       -0.8865779563       -0.5434165936
 C         -6.9037935896       -1.9618253784       -1.0418529325
 C         -6.2083481669       -3.0811145648       -1.4710688479
 C         -4.8240686206       -3.1261341596       -1.4087405962
 C         -4.1007900314       -2.0513507913       -0.9092712065
 C         -4.7890273786       -0.9400755973       -0.4766445663
 C         -4.2294768842        0.3455643666        0.1123665003
 C         -3.3050716166        0.9890987932       -0.8923676590
 C         -3.8439795536        1.6860086661       -1.9624473785
 C         -3.0421947859        2.1732970139       -2.9780220153
 C         -1.6809008470        1.9307623690       -2.9366935714
 C         -1.1257401001        1.2465585466       -1.8736047678
 C         -1.9217861173        0.7881670426       -0.8227061072
 N         -1.3716022047        0.1151482430        0.2657697019
 C         -0.0313855373       -0.3274809058        0.2451781197
 C          0.2011038898       -1.7248608276        0.2761203701
 C          1.4645827668       -2.2288395779        0.2086106869
 C          2.5688831857       -1.3523047496        0.1140708490
 N          3.8085700235       -1.8468126861        0.0151195466
 C          4.8116238134       -0.9913381752       -0.0566177410
 C          6.1583915358       -1.4978449304       -0.1891918624
 C          6.4173313868       -2.8704815799       -0.2644700341
 C          7.7193679566       -3.2977993316       -0.4013140437
 C          8.7268826152       -2.3333034856       -0.4585523112
 N          8.5047161822       -1.0422039406       -0.3855251191
 C          7.2513394334       -0.6106370710       -0.2526305010
 C          7.0260146646        0.8244379522       -0.1720825593
 N          8.0872002074        1.6289554544       -0.2132103629
 C          7.9033728299        2.9261797610       -0.1424051871
 C          6.6483423550        3.5262761409       -0.0276053747
 C          5.5395536536        2.7104733979        0.0168551726
 C          5.7139097609        1.3245166220       -0.0543373673
 C          4.5870356811        0.4201402415       -0.0087670964
 N          3.3680784154        0.9183722686        0.0708576974
 C          2.3409766985        0.0573171873        0.1221937332
 C          1.0224848118        0.5490178592        0.1917696312
 C         -2.1242640120       -0.1289036599        1.4092149498
 C         -1.4889046907       -0.4808858833        2.6019842435
 C         -2.2213572828       -0.7045327918        3.7504931715
 C         -3.5980762543       -0.5628534981        3.7374608156
 C         -4.2319843242       -0.1966952471        2.5638102153
 C         -3.5125954193        0.0229801533        1.3999958362
 H         -8.9932765566        2.6662745477        0.7324121353
 H         -7.0100061560        3.9492501999        1.3911279989
 H         -4.7458459390        2.9786356267        1.1506137234
 H         -8.7676121161        0.3851506963       -0.1876011219
 H         -7.9819052776       -1.9312905556       -1.0949568345
 H         -6.7506126110       -3.9291580891       -1.8629556839
 H         -4.3023775721       -4.0065748158       -1.7543704155
 H         -3.0220682863       -2.0868347144       -0.8689122664
 H         -4.9128284030        1.8328649129       -2.0036789674
 H         -3.4787917642        2.7145928295       -3.8029244731
 H         -1.0412520050        2.2739641651       -3.7360321915
 H         -0.0647425139        1.0563787003       -1.8714695558
 H         -0.6523621904       -2.3837263086        0.3433671677
 H          1.6546008907       -3.2905992922        0.2139076394
 H          5.5867963001       -3.5584399470       -0.2177884797
 H          7.9601847532       -4.3474853924       -0.4659007650
 H          9.7646367043       -2.6204363060       -0.5688296112
 H          8.8038934175        3.5255238814       -0.1805075664
 H          6.5558800792        4.5998934678        0.0253589232
 H          4.5381146281        3.1034811305        0.1056796772
 H          0.8701637097        1.6168871687        0.2078997016
 H         -0.4139798694       -0.5747258193        2.6278294173
 H         -1.7110456055       -0.9854266187        4.6595910030
 H         -4.1746247578       -0.7361676355        4.6328814093
 H         -5.3056009639       -0.0846096995        2.5447013377
  73
  -119.074158643100       1.016778960912890E-002 !
 C         -8.1376555564        1.9789116624        0.6096117377
 C         -7.0759261459        2.7466656502        1.0640022808
 C         -5.7691031149        2.2913466377        0.9492748816
 C         -5.5488959159        1.0593381076        0.3724107042
 C         -6.6201316742        0.2797561098       -0.0874449854
 C         -7.9216374565        0.7386948156        0.0299783245
 C         -6.0882139761       -0.9545261051       -0.6440643994
 C         -6.7221291168       -2.0402516540       -1.2248129959
 C         -5.9474905031       -3.0933501071       -1.6847623025
 C         -4.5660929980       -3.0621578200       -1.5719223454
 C         -3.9253978300       -1.9762280365       -0.9902557848
 C         -4.6923540636       -0.9309892334       -0.5261207099
 C         -4.2319199399        0.3550145529        0.1434038603
 C         -3.3199101516        1.0986355354       -0.8029373340
 C         -3.8696937883        1.8407997723       -1.8362483641
 C         -3.0731371315        2.4141720442       -2.8100428865
 C         -1.7061579804        2.2066045128       -2.7694801471
 C         -1.1403158356        1.4790021859       -1.7410662098
 C         -1.9308019885        0.9419745374       -0.7244130885
 N         -1.3735254031        0.2362420944        0.3407616917
 C         -0.0416794755       -0.2238672265        0.3090833082
 C          0.1642387303       -1.6258040072        0.3705345051
 C          1.4151844821       -2.1584289098        0.3057373396
 C          2.5370362748       -1.3088891198        0.1760953476
 N          3.7651308478       -1.8324314657        0.0898417160
 C          4.7847733716       -1.0012450193       -0.0262388662
 C          6.1208129484       -1.5410058651       -0.1321945969
 C          6.3540778805       -2.9201352349       -0.1117373176
 C          7.6475510814       -3.3801758744       -0.2194321540
 C          8.6726687644       -2.4410232092       -0.3452509706
 N          8.4744082861       -1.1441683826       -0.3657672555
 C          7.2294391752       -0.6811052240       -0.2625296944
 C          7.0299540201        0.7596817179       -0.2883680444
 N          8.1032646646        1.5386216242       -0.4161080908
 C          7.9431847421        2.8405786079       -0.4428755480
 C          6.7019346766        3.4711716785       -0.3436508700
 C          5.5809066366        2.6821429601       -0.2114524314
 C          5.7294042309        1.2917137747       -0.1815944280
 C          4.5875762426        0.4145427978       -0.0514441305
 N          3.3803875557        0.9411677143        0.0321740057
 C          2.3374959642        0.1045776017        0.1415261310
 C          1.0313467675        0.6272917304        0.2239135904
 C         -2.1355435504       -0.0617217446        1.4669854079
 C         -1.5032804650       -0.4007778131        2.6651008341
 C         -2.2431844830       -0.6838095297        3.7955229262
 C         -3.6253784930       -0.6161442741        3.7580570803
 C         -4.2568709617       -0.2571366352        2.5809475139
 C         -3.5287375256        0.0246857440        1.4358799953
 H         -9.1459717100        2.3532989633        0.7090815652
 H         -7.2680369780        3.7102820927        1.5122260537
 H         -4.9421511437        2.8892047934        1.3038800917
 H         -8.7513761314        0.1440068086       -0.3222359626
 H         -7.7974898546       -2.0670451783       -1.3193929171
 H         -6.4246251806       -3.9486636480       -2.1403576688
 H         -3.9811973300       -3.8914157437       -1.9421851457
 H         -2.8484545292       -1.9531296948       -0.9134010242
 H         -4.9422153895        1.9550294798       -1.8833572870
 H         -3.5180297211        2.9921565113       -3.6051147692
 H         -1.0698373943        2.6128304137       -3.5414124115
 H         -0.0753575616        1.3145835856       -1.7435715483
 H         -0.7012149582       -2.2653143756        0.4662232559
 H          1.5823358017       -3.2234705645        0.3404938048
 H          5.5114419321       -3.5873613470       -0.0120620680
 H          7.8689590497       -4.4360446800       -0.2075932150
 H          9.7051041212       -2.7545036789       -0.4319817970
 H          8.8524871545        3.4181009384       -0.5486653579
 H          6.6290662242        4.5472557517       -0.3709726602
 H          4.5888746218        3.0996968913       -0.1298574853
 H          0.9077617464        1.6987782812        0.2312071997
 H         -0.4253468686       -0.4349844373        2.7089655210
 H         -1.7353209960       -0.9505821893        4.7102065706
 H         -4.2079436902       -0.8385501334        4.6386273664
 H         -5.3343757115       -0.2013646631        2.5436936708
