97
 energy: -158.565055746070 gnorm: 0.000130124539 xtb: 6.7.1 (edcfbbe)
C            7.24257187759210        4.81425771049584        0.58513764317316
C            5.85542795203075        4.81896267691387        0.56705385652676
C            5.15953952560986        3.63668192806456        0.41892912797212
C            5.84894602241768        2.43054538157803        0.28640147364922
C            5.11927294081376        1.17975531521723        0.12887805665854
N            5.82631668248617        0.04140392411368       -0.02596981967670
C            5.13363845688101       -1.10651273990980       -0.17607936248693
C            5.87915088948669       -2.34771476674366       -0.33472614482958
C            5.20551320948987       -3.56343889930935       -0.46076268947098
C            5.91666800788957       -4.73665603861032       -0.60849370243151
C            7.30353638620881       -4.71332041771726       -0.63271273985145
C            7.97847098955779       -3.50876117247452       -0.50790209423871
C            7.27392586159157       -2.33077276203337       -0.35920772124321
N            3.82927070299148       -1.13723679748908       -0.18386221658743
C            3.14547826804950        0.02357580326535       -0.01845994658838
C            1.72890907599216        0.01394142965616       -0.01298683183820
C            1.01447923434675       -1.18215040327064       -0.23084804709833
C           -0.36050013778568       -1.19350174659335       -0.22314810877641
N           -1.05630669318164       -2.40094248615492       -0.43291604178312
C           -0.95306701224904       -3.52165071742100        0.37223652559105
C           -0.04878296924688       -3.79366819759614        1.38935437032729
C           -0.17984181790373       -4.99306881221466        2.06206960357079
C           -1.18627970472118       -5.90386136301619        1.74306561341529
C           -2.09674249815612       -5.63492072304713        0.74183283644105
C           -1.98286319903941       -4.43513671494706        0.05112270461684
C           -2.73987613443678       -3.83134767314947       -1.00631352798487
N           -3.80210919376678       -4.26889112026412       -1.66010329568243
C           -4.28454932748362       -3.49829917594994       -2.61376960465235
C           -3.71600433771230       -2.28212937121054       -2.99100092581795
C           -2.59584298401520       -1.80949337991001       -2.33023281945125
C           -2.12066904176978       -2.58106561092345       -1.28135347417461
C           -1.08962903039552       -0.00658963674898        0.00360071653216
N           -2.49285641957127       -0.01749521302017        0.01497050978064
C           -3.31272307511285        0.72959122908075       -0.80458504850481
C           -2.97412504142268        1.59464754123156       -1.83581006154337
C           -4.00066589107368        2.23368342112942       -2.50319139706182
C           -5.33345560584014        2.00152263757658       -2.17395212254249
C           -5.67695187911961        1.10366855597092       -1.18039469811750
C           -4.66333833563188        0.45589071683910       -0.49071336208553
C           -4.64625240525344       -0.52237891415966        0.56172503791888
C           -5.63698115188551       -1.18454627926966        1.27074748502408
C           -5.26153394834647       -2.07688433369040        2.25769632487330
C           -3.91946728769336       -2.28952486388189        2.56147345790860
C           -2.91527524066603       -1.63587893595526        1.87453672991396
C           -3.28611089565888       -0.77624844758023        0.84990296525001
C           -0.37521278199930        1.19104544743339        0.22049729767816
N           -1.08624074399431        2.38822477145196        0.43850192827973
C           -1.01321600075323        3.50812269823423       -0.37097620260807
C           -0.12880405103287        3.79148452901063       -1.40235356124125
C           -0.28959727301251        4.98635364408220       -2.07667887268895
C           -1.30591953812823        5.88162220091017       -1.74525355445407
C           -2.19650590559377        5.60134090423157       -0.72935640921508
C           -2.05265243565528        4.40586456700423       -0.03676473642175
C           -2.78370395837638        3.79306045885302        1.03367707152930
N           -3.84290571025477        4.21527491228247        1.70232739454288
C           -4.29844548618173        3.43954816568546        2.66503889958120
C           -3.70492651510642        2.23358828947289        3.03653573036752
C           -2.58742032242261        1.77714199034152        2.36007388632731
C           -2.14042836939086        2.55360929517704        1.30245653281180
C            0.99975768052636        1.19987076435987        0.21166357786744
N            3.81463608495713        1.19344485297360        0.14354708897725
C            7.24389945508926        2.43233441141517        0.30452406788213
C            7.93313094476339        3.61931180971258        0.45360518247014
H            7.78425760222610        5.74137183000844        0.70158949609150
H            5.31824836868636        5.75060475773851        0.66914563401742
H            4.08062950739911        3.62454232968585        0.40248735037929
H            4.12661681316211       -3.56589077594872       -0.43944186177559
H            5.39169478254641       -5.67578339612385       -0.70539697342481
H            7.85718134343132       -5.63341042367988       -0.74864176436404
H            9.05840251111311       -3.49140768730306       -0.52693539587121
H            7.78516376881331       -1.38545488007406       -0.26127072708746
H            1.56501205321250       -2.08721108838036       -0.43019507915272
H            0.72760186821525       -3.09051748730642        1.65114864211555
H            0.51357409335079       -5.22935885742649        2.85571737028925
H           -1.25198920472699       -6.82953826942792        2.29484783278334
H           -2.88568797701495       -6.32607340009497        0.49151072954415
H           -5.16044969934833       -3.87759727166662       -3.12153572762331
H           -4.14440542754518       -1.71844897226119       -3.80461601383143
H           -2.11332877768303       -0.89097696835271       -2.62957598726968
H           -1.94524501231289        1.76243716121699       -2.11652012104392
H           -3.76148955731230        2.92462270413951       -3.29755035903454
H           -6.10838394220049        2.52375196026786       -2.71440488486935
H           -6.71149764592434        0.90742994700923       -0.94358071440590
H           -6.67861494571627       -1.00341551219104        1.05380606332871
H           -6.01831399445763       -2.61004205086642        2.81299412967772
H           -3.65513195647436       -2.97652571655283        3.35126143039316
H           -1.87889334536230       -1.78832467349161        2.13569911838515
H            0.65494535041714        3.10012167286204       -1.67347232006854
H            0.38773463104079        5.23131302800894       -2.88150748251913
H           -1.39522014387266        6.80417091920091       -2.29896204997702
H           -2.99271586785830        6.28043130934963       -0.46921269589444
H           -5.17255019747061        3.80613187516291        3.18509336759403
H           -4.11202050506371        1.66523984163758        3.85780697705299
H           -2.08594108270407        0.86707245437894        2.65403762109234
H            1.53922767902240        2.11309379049519        0.40393602919677
H            7.76741570429942        1.49429953578454        0.20156622459150
H            9.01326951696762        3.61649905718717        0.46787270617812
