97
 energy: -158.636872529632 gnorm: 0.000034869991 xtb: 6.7.1 (edcfbbe)
C            7.21500930784217        4.78640616166164       -0.14265587795471
C            7.90791653558684        3.58611115789166       -0.17979724054520
C            7.22098724813254        2.38829025358335       -0.14959120447271
C            5.82894743890146        2.38444629924593       -0.08266140954474
C            5.09802883619572        1.11890900644653       -0.05212142627296
N            5.79783103142446       -0.01138859652684       -0.03149700040908
C            5.09372695405160       -1.13884989614364       -0.00317847162609
C            5.81985045739297       -2.40731819327080        0.01929490744851
C            5.12274399475586       -3.61407446391689       -0.01022254935092
C            5.81155688111750       -4.81090843840666        0.01172575477396
C            7.19693444858620       -4.81477802031437        0.06398011646439
C            7.89497431203925       -3.61724993978231        0.09353792008455
C            7.21251653914042       -2.41670929742285        0.07092085428103
N            3.76281351637481       -1.18206560221592        0.00535433633632
C            3.14634799606233       -0.00601862970760       -0.01697998427664
C            1.68336795373677       -0.00307112861100       -0.00898608177192
C            0.98546473857347       -1.18420840665351        0.21545179824804
C           -0.40069817526112       -1.19070887890094        0.22772331646935
N           -1.08174737316131       -2.39570485463361        0.44841281932795
C           -2.15913962925799       -2.59251285221149        1.29682070700125
C           -2.62201206729607       -1.78701408308021        2.32575425417341
C           -3.73213169419101       -2.21486450300471        3.02767655992945
C           -4.35217160654963       -3.42877056539035        2.73964360958677
C           -3.85658591228254       -4.26531735377974        1.76011230782964
C           -2.74646179094190       -3.84974989507369        1.03741200636715
C           -1.96764550389848       -4.45144777967587       -0.00794179835897
N           -2.11042973412798       -5.62311313032726       -0.60711597070621
C           -1.23942713355226       -5.90969331899142       -1.55606207986119
C           -0.20953235403475       -5.06104188813336       -1.95934366542758
C           -0.04782501463036       -3.82898929590848       -1.34665083537828
C           -0.94443620436684       -3.52297795953341       -0.33584607533538
C           -1.11466674181480        0.00242961849165        0.00616869214837
N           -2.51071550562047        0.00510662115439        0.01373418787550
C           -3.32707314083989       -0.78052862048656       -0.78095657753407
C           -2.98364226357164       -1.66672523603308       -1.78971795008819
C           -4.00601611527793       -2.33019750669637       -2.44036879217125
C           -5.33985800064857       -2.09624864703470       -2.11932008382940
C           -5.68745485591786       -1.17025892520465       -1.15558736672365
C           -4.67675037887682       -0.49950005633803       -0.48191186549989
C           -4.66938298533089        0.51576987467113        0.53462952113268
C           -5.67028999480863        1.18923994727642        1.22012086074392
C           -5.30890284978048        2.11426960992992        2.17969434097528
C           -3.97075010519941        2.34466311821883        2.48498593792711
C           -2.95787793205015        1.67841769232407        1.82240955175645
C           -3.31551708666096        0.79305759904663        0.81786413418705
C           -0.39847468001307        1.19275743134729       -0.22312234052918
N           -1.07716849449410        2.40037373118987       -0.43659668300049
C           -2.16275074883774        2.60138221058191       -1.27350532742838
C           -2.64022981973636        1.79733154217541       -2.29688453800198
C           -3.75602571022325        2.22959190765640       -2.98700659950980
C           -4.36761927740805        3.44636653840938       -2.69307816688029
C           -3.85780570871841        4.28132233045434       -1.71951245064671
C           -2.74177691172084        3.86131153966596       -1.00856554267114
C           -1.94916281673846        4.46020854667995        0.02798239335933
N           -2.08039216237854        5.63285434984000        0.62788141881930
C           -1.19805985733014        5.91617083129918        1.56728975556007
C           -0.16769937660358        5.06320326006680        1.96014259079064
C           -0.01792721437139        3.83010267007086        1.34652167569906
C           -0.92655364503599        3.52746527217171        0.34547328644361
C            0.98772028263895        1.18080766526240       -0.22585839990063
N            3.76728495011916        1.16751475860116       -0.04607791438981
C            5.13700933914387        3.59396460181505       -0.04557773265253
C            5.83028494288752        4.78805018097140       -0.07517860792519
H            7.75480389185182        5.72172051327600       -0.16653857203355
H            8.98668884408718        3.58782367402486       -0.23279469281114
H            7.74263737339450        1.44470765182419       -0.17902163887028
H            4.04503979627597       -3.59290759859427       -0.05158430066125
H            5.26980405771256       -5.74507337086216       -0.01136519010837
H            7.73324059709889       -5.75223254139977        0.08181441507247
H            8.97424970321618       -3.62325002147934        0.13465077426942
H            7.73820264898417       -1.47520969587474        0.09467774923708
H            1.53470949527356       -2.09096930085174        0.41144402194970
H           -2.13099084333948       -0.86079289178513        2.58101734820664
H           -4.12260663138982       -1.59342513846107        3.81973327240900
H           -5.22138089073114       -3.72320785107200        3.30816213720757
H           -4.30562498664962       -5.22283428581224        1.55017405425511
H           -1.37158470210746       -6.87291362912447       -2.03023039136897
H            0.45710349794561       -5.36448566690434       -2.75175609423197
H            0.73272474572989       -3.14592508069585       -1.65139392807857
H           -1.95458735511213       -1.83197181014611       -2.07293096328576
H           -3.76232015997262       -3.04041647521588       -3.21633870401506
H           -6.11096411204210       -2.63736826692118       -2.64654925255340
H           -6.72283089631124       -0.96644284346451       -0.92932676936329
H           -6.70879732698863        0.98820718012907        1.00604598857320
H           -6.07230308515333        2.65743087570025        2.71596367175481
H           -3.71603551726061        3.05425926862016        3.25798248529001
H           -1.92513936297924        1.84092631863925        2.09351914627257
H           -2.15602118135209        0.86886767116395       -2.55694143542822
H           -4.15775792341448        1.60937746078001       -3.77438065518771
H           -5.24165043408609        3.74424656478892       -3.25233633509891
H           -4.30034257249805        5.24093048183285       -1.50535320738964
H           -1.32086869704764        6.88028020595334        2.04216433878289
H            0.50863051187969        5.36414940821981        2.74525833308250
H            0.76279306749127        3.14377827683947        1.64340065278384
H            1.53836955031499        2.08540370652757       -0.42782669597551
H            4.05975124573002        3.57706650438360        0.00765747746778
H            5.29253052025059        5.72435934114927       -0.04624104524138
