  97
       -158.56029632
 C          7.2437395276        4.7965413622        0.7038884715
 C          5.8567188268        4.8025502551        0.6742222256
 C          5.1614162511        3.6248330515        0.4903039731
 C          5.8513860919        2.4220695387        0.3340869348
 C          5.1228632991        1.1727503319        0.1467802876
 N          5.8349116738        0.0397954649       -0.0070290067
 C          5.1354014979       -1.0971639966       -0.1780952588
 C          5.8758352326       -2.3439465890       -0.3380530627
 C          5.1952152090       -3.5528348436       -0.4864751113
 C          5.8996279798       -4.7300485507       -0.6361009334
 C          7.2866833641       -4.7167602839       -0.6398984623
 C          7.9684605436       -3.5185582009       -0.4920853623
 C          7.2704240402       -2.3367676583       -0.3410932645
 N          3.8293487717       -1.1299819941       -0.2064837737
 C          3.1460155290        0.0301050356       -0.0390287510
 C          1.7311790557        0.0206322629       -0.0445176478
 C          1.0176533843       -1.1787332618       -0.2607272069
 C         -0.3559053100       -1.1938362617       -0.2498433577
 N         -1.0502158349       -2.4034467022       -0.4541019588
 C         -0.9360098728       -3.5235784701        0.3499128188
 C         -0.0246489144       -3.7905053893        1.3623060413
 C         -0.1452967577       -4.9906827466        2.0356056662
 C         -1.1480891420       -5.9073118809        1.7216901336
 C         -2.0659332248       -5.6433664290        0.7256178328
 C         -1.9631597486       -4.4425284098        0.0351502056
 C         -2.7295378700       -3.8425405256       -1.0177717566
 N         -3.7935067706       -4.2851139625       -1.6648638372
 C         -4.2861293805       -3.5171407829       -2.6154664522
 C         -3.7272891996       -2.2970228368       -2.9946892389
 C         -2.6046723328       -1.8193226621       -2.3417330256
 C         -2.1177212428       -2.5890480340       -1.2967564874
 C         -1.0888700623       -0.0073252375       -0.0243612926
 N         -2.4916104131       -0.0201235682       -0.0052532311
 C         -3.3148174597        0.7329455906       -0.8152966639
 C         -2.9806550086        1.5897106404       -1.8552253806
 C         -4.0088689909        2.2393028518       -2.5097014430
 C         -5.3393051016        2.0255518370       -2.1589220077
 C         -5.6795116331        1.1348555119       -1.1572381418
 C         -4.6642001158        0.4761657457       -0.4810333911
 C         -4.6425674901       -0.4992750431        0.5741381373
 C         -5.6298549999       -1.1462696147        1.3011912817
 C         -5.2497470882       -2.0389368161        2.2865998919
 C         -3.9057180948       -2.2674157681        2.5699037605
 C         -2.9044303825       -1.6290938835        1.8644867912
 C         -3.2806515765       -0.7676581868        0.8429371105
 C         -0.3753945188        1.1940224121        0.1859409923
 N         -1.0912122821        2.3884692426        0.4068092431
 C         -1.0345748173        3.5050669616       -0.4073089316
 C         -0.1649922150        3.7879382004       -1.4515254385
 C         -0.3414768843        4.9782837063       -2.1298292111
 C         -1.3579406770        5.8698805519       -1.7887641294
 C         -2.2333561915        5.5903720291       -0.7592421063
 C         -2.0747333849        4.3986937537       -0.0635478145
 C         -2.7881124544        3.7863559650        1.0191706496
 N         -3.8404519649        4.2044887596        1.7005743873
 C         -4.2787307281        3.4299940834        2.6722674898
 C         -3.6752154644        2.2272508086        3.0383266328
 C         -2.5637241434        1.7751548474        2.3491696352
 C         -2.1338876105        2.5514048319        1.2842447591
 C          0.9979757160        1.2073406643        0.1746023408
 N          3.8162191651        1.1946205067        0.1419133721
 C          7.2459515839        2.4226441896        0.3622854923
 C          7.9346736978        3.6050723191        0.5464948146
 H          7.7849338809        5.7198822645        0.8496965798
 H          5.3190891838        5.7316071973        0.7962937849
 H          4.0824355852        3.6139959145        0.4654679112
 H          4.1161119393       -3.5474489026       -0.4807772547
 H          5.3690380893       -5.6640275155       -0.7509682549
 H          7.8351918515       -5.6396110391       -0.7589418785
 H          9.0485998320       -3.5092448943       -0.4946505569
 H          7.7856841920       -1.3957967732       -0.2250012421
 H          1.5717341767       -2.0817180859       -0.4594194662
 H          0.7493576802       -3.0831340446        1.6194892835
 H          0.5535750122       -5.2229656059        2.8255739660
 H         -1.2055442185       -6.8334455889        2.2735975267
 H         -2.8521891710       -6.3391086994        0.4795899331
 H         -5.1621347447       -3.9018152302       -3.1189541933
 H         -4.1641115294       -1.7352712375       -3.8051700783
 H         -2.1280100639       -0.8990243410       -2.6449676828
 H         -1.9538119884        1.7428334156       -2.1512883955
 H         -3.7731418458        2.9239913174       -3.3103865431
 H         -6.1156382481        2.5560187071       -2.6891693108
 H         -6.7129084718        0.9528639996       -0.9046850291
 H         -6.6725265765       -0.9533420710        1.1000324370
 H         -6.0043158814       -2.5597933651        2.8563844729
 H         -3.6376269771       -2.9542980166        3.3584565981
 H         -1.8661209582       -1.7934088479        2.1099820735
 H          0.6193398128        3.0994147367       -1.7280628125
 H          0.3233114204        5.2228140193       -2.9451120305
 H         -1.4596348240        6.7892188533       -2.3456770431
 H         -3.0289818793        6.2672261000       -0.4916015608
 H         -5.1460737169        3.7950523942        3.2045470688
 H         -4.0687716060        1.6592790394        3.8663971777
 H         -2.0524490195        0.8693057159        2.6394842569
 H          1.5362850065        2.1220256352        0.3631398673
 H          7.7684802957        1.4866532028        0.2388725745
 H          9.0147056362        3.6012127117        0.5692915752
