97
 energy: -158.636886664167 gnorm: 0.000039056443 xtb: 6.7.1 (edcfbbe)
C            7.20843816727122        4.81082737727181       -0.17316962783040
C            7.90668909184501        3.61307023384111       -0.17822596403480
C            7.22434326801527        2.41306779121229       -0.13396743192151
C            5.83158002940470        2.40442601862537       -0.08488929511233
C            5.10552011804333        1.13655347430413       -0.03907953045002
N            5.80957913153841        0.00958202316690        0.00543324025697
C            5.10977588959512       -1.12007222039493        0.04860501876688
C            5.84059508188599       -2.38522774863770        0.09360829768165
C            5.14786929733529       -3.59483073888387        0.08320685974099
C            5.84098140785881       -4.78863668369109        0.12521696168732
C            7.22632704689179       -4.78662008586520        0.17850129488106
C            7.92000949012924       -3.58624539815632        0.18909790023009
C            7.23323812752145       -2.38870649647734        0.14648367058419
N            3.77897614259321       -1.16844141236361        0.05218406593389
C            3.15819483960115        0.00449500289300        0.00395743917451
C            1.69520553711499        0.00188024407866        0.00312262987808
C            1.00011774047404       -1.17286166658485        0.26611646704307
C           -0.38614948195144       -1.18413354123933        0.27008754497868
N           -1.06381058187723       -2.38278884003695        0.53155168728681
C           -2.14563009283831       -2.55275380695340        1.38015397971521
C           -2.62125265257775       -1.70991175379680        2.37273781009528
C           -3.73332397380486       -2.11709554324161        3.08382624942673
C           -4.34299420754271       -3.34602225146174        2.84091290031862
C           -3.83465774096154       -4.21780978343072        1.89940008911657
C           -2.72243096889447       -3.82365554595141        1.16799910250308
C           -1.93190157660356       -4.46186572863829        0.15359662738084
N           -2.06180142402113       -5.65843801598374       -0.39735313758094
C           -1.18169893150742       -5.97764309821007       -1.32728234420608
C           -0.15534878203834       -5.13847357624640       -1.75845637497260
C           -0.00715739449556       -3.88082235232234       -1.19642553357042
C           -0.91296464356808       -3.54009798355967       -0.20507322224091
C           -1.10296573463104       -0.00273160651915       -0.00015805819107
N           -2.49903950462183       -0.00519855961183       -0.00275863552808
C           -3.30654076200764       -0.82323397536404       -0.77355101802298
C           -2.95239760271767       -1.74678114023989       -1.74440942474186
C           -3.96762916237337       -2.43729387850524       -2.37793369233733
C           -5.30476388905371       -2.19464616291623       -2.07773128585783
C           -5.66278648109554       -1.23330240346327       -1.15324282509437
C           -4.65945043678541       -0.53457741681394       -0.49723297060451
C           -4.66345949962152        0.51919554611101        0.47931003618355
C           -5.67217342041674        1.21596961583542        1.12911449540714
C           -5.32171359979513        2.17855255522174        2.05520200231786
C           -3.98690126065077        2.42423150966883        2.36317972260973
C           -2.96644919051040        1.73564991926944        1.73597587217346
C           -3.31282397046803        0.81100717783299        0.76334693912494
C           -0.38940500021191        1.18108934639621       -0.26828231986381
N           -1.07014505754359        2.37775033897647       -0.53090160552993
C           -2.14979603059383        2.54518926976858       -1.38270480232037
C           -2.61932656142305        1.70203159831677       -2.37791425938787
C           -3.73033483085156        2.10649743946945       -3.09219798172423
C           -4.34484140039348        3.33310076364652       -2.84972207801017
C           -3.84262324754983        4.20528481442973       -1.90529431517089
C           -2.73154704704206        3.81386834036811       -1.17069100978162
C           -1.94653617294279        4.45328820227882       -0.15275763136789
N           -2.08238281199550        5.64848543612229        0.39975387138373
C           -1.20637921429168        5.96921303008107        1.33303087996092
C           -0.17829572706877        5.13305728741004        1.76594865502723
C           -0.02390648303905        3.87686116425498        1.20235054096123
C           -0.92556719840216        3.53451578147452        0.20778879364852
C            0.99682699018659        1.17438090255008       -0.26108364172675
N            3.77457254570656        1.17978560008643       -0.04404035242316
C            5.13426223229251        3.61142664416628       -0.07980172271991
C            5.82295847604258        4.80772748240352       -0.12354734457064
H            7.74466628613550        5.74784839366076       -0.20806068711560
H            8.98604503330245        3.61846611609319       -0.21724408048815
H            7.75021014880739        1.47138600884392       -0.13845059574550
H            4.07013103140536       -3.57818736563925        0.04050957547415
H            5.30262596615147       -5.72501288364817        0.11692406771927
H            7.76601830966317       -5.72170369541123        0.21192856580136
H            8.99927232345814       -3.58767941132803        0.23096959653927
H            7.75551694942476       -1.44505390416394        0.15498951300336
H            1.55129103166037       -2.06972253132281        0.49884681325811
H           -2.13840935035155       -0.77079734439766        2.59416497594261
H           -4.13357846607726       -1.46704258528062        3.84752709239342
H           -5.21414158988738       -3.62350209574819        3.41496753267106
H           -4.27532466743807       -5.18635219815261        1.72534857606799
H           -1.30309977955199       -6.96085961181679       -1.76161558094461
H            0.51917806914818       -5.46939603854960       -2.53299055423565
H            0.77045419553526       -3.20510376414256       -1.52415545136650
H           -1.92061023341764       -1.92033933148117       -2.01225842970285
H           -3.71558468534820       -3.17615237541395       -3.12391588070550
H           -6.07002084057975       -2.75754605244220       -2.59048695121740
H           -6.70051624480628       -1.02350833109200       -0.94384009764996
H           -6.70818511145035        1.00385469937017        0.91362844110345
H           -6.09120984491359        2.74007545975461        2.56309889033763
H           -3.74086319624877        3.16397385830318        3.11028581467782
H           -1.93663780415649        1.91166499151734        2.00978129588110
H           -2.13268868712187        0.76474747089919       -2.59882755614063
H           -4.12585946779461        1.45616455822602       -3.85812057133916
H           -5.21490587891584        3.60851114141977       -3.42640763353011
H           -4.28713312452598        5.17209759002255       -1.73140443506602
H           -1.33262343345804        6.95126480727214        1.76861506503401
H            0.49274189586907        5.46516579620931        2.54300175895551
H            0.75511060296133        3.20335097461987        1.53129576680423
H            1.54553411866402        2.07310012508994       -0.49245909911192
H            4.05648318337790        3.59086667882089       -0.03996858470822
H            5.28104409842408        5.74207757799244       -0.11954031708925
