94
 energy: -153.921678507076 gnorm: 0.000067692466 xtb: 6.7.1 (edcfbbe)
N            0.00010062983534        3.10946478357375        2.41463786507063
C            0.00008297221660        2.25817808690453        1.64638356294912
C            0.00004105305356        1.16169128390570        0.75380744073469
C           -1.22856172017225        0.59043987186579        0.38156590785303
N           -2.42219306473160        1.17626363573265        0.79183387449919
C           -3.46018314066486        0.51953960094109        1.43822821720557
C           -3.47600538027766       -0.74109321639793        2.01144218791584
C           -4.64347180631414       -1.15355921572288        2.62707488987253
C           -5.76000423628686       -0.32517078867918        2.68923826514664
C           -5.72839820937893        0.95306646858676        2.16538965130629
C           -4.56664566344514        1.38748316281826        1.54230433795251
C           -4.17285567088693        2.63174381312411        0.93746233505377
C           -4.82738064372014        3.83784989244032        0.72840494981680
C           -4.15210274163910        4.85476023612542        0.08181478414909
C           -2.84667865011973        4.67583460692416       -0.36594044574933
C           -2.17761679788033        3.48153466059974       -0.17084711512071
C           -2.84277251961905        2.46720685827004        0.49721226994402
C           -1.22860405513075       -0.59031266429947       -0.38171816960936
N           -2.42227712569620       -1.17605919170952       -0.79197499419013
C           -2.84293760904267       -2.46697306742212       -0.49733319523698
C           -2.17782069072057       -3.48135577371396        0.17068068888399
C           -2.84695934931035       -4.67560822570614        0.36580257731168
C           -4.15242163087890       -4.85443462839067       -0.08187957446765
C           -4.82766125062686       -3.83746810958495       -0.72842122648656
C           -4.17305907573592       -2.63140872462259       -0.93750479983565
C           -4.56679516919490       -1.38711322361223       -1.54230961751751
C           -5.72856029143437       -0.95260308449423       -2.16530610051059
C           -5.76010783026390        0.32564191922525       -2.68913893828951
C           -4.64350549434523        1.15394183409569       -2.62705378893030
C           -3.47602576860220        0.74138131215047       -2.01150945119953
C           -3.46026042651760       -0.51925418827731       -1.43830049317285
C           -0.00004024621898       -1.16165210134061       -0.75395305693465
C           -0.00007352867445       -2.25812549849138       -1.64654178244555
N           -0.00006906617333       -3.10940138718185       -2.41481208686737
C            1.22856353994791       -0.59040855804345       -0.38169777920633
N            2.42219857566503       -1.17624994630653       -0.79193089255729
C            3.46022796281593       -0.51954115428567       -1.43827947720272
C            3.47609193941451        0.74108564992913       -2.01150542559260
C            4.64359466926063        1.15353539152208       -2.62708037572744
C            5.76012335283179        0.32513680680712       -2.68917666969714
C            5.72847871055655       -0.95309456901822       -2.16531621078479
C            4.56668952894647       -1.38749439184454       -1.54228734873377
C            4.17286077877333       -2.63174395091046       -0.93744788208785
C            4.82736830110042       -3.83785017961136       -0.72833679777453
C            4.15205318746418       -4.85474492075913       -0.08176088095353
C            2.84660868714584       -4.67580328589921        0.36592787494546
C            2.17756410380595       -3.48150276196477        0.17077975278740
C            2.84275725158783       -2.46719074602094       -0.49726613439854
C            1.22860347979861        0.59034462534369        0.38158410325106
N            2.42227755993667        1.17607021021293        0.79187248985426
C            3.46019590873417        0.51925671294595        1.43829158561044
C            3.47588921589261       -0.74137088522994        2.01152033822053
C            4.64330490807694       -1.15393947400727        2.62718001578825
C            5.75991397122554       -0.32565495407602        2.68935362280957
C            5.72843700081016        0.95257979596244        2.16549094580682
C            4.56673678351869        1.38709881845331        1.54237909066576
C            4.17307138753771        2.63139097825551        0.93752088942953
C            4.82770911650585        3.83743679687717        0.72846934236976
C            4.15253425290313        4.85440559141773        0.08186345323485
C            2.84710062198808        4.67559735704694       -0.36591081606893
C            2.17792667257130        3.48135924157804       -0.17082309340629
C            2.84298051553046        2.46697266314912        0.49724866025115
H           -2.60713906734742       -1.38167403178344        1.99465766647937
H           -4.68384161636453       -2.13679811245502        3.07099440881166
H           -6.65585166096682       -0.68423650180944        3.17271474512860
H           -6.58344558346679        1.60640441951995        2.24349061030751
H           -5.84477582764912        3.97107145060970        1.06187613648789
H           -4.64176800137408        5.80182726530028       -0.08683799942977
H           -2.34410763037937        5.48241810273236       -0.87827946170748
H           -1.16923362475218        3.35368311553191       -0.53641292667444
H           -1.16940721177607       -3.35358430332474        0.53618863554225
H           -2.34441630303397       -5.48223298882573        0.87810399287939
H           -4.64214693996853       -5.80146727484220        0.08679277688074
H           -5.84508616644569       -3.97061052747703       -1.06183374189867
H           -6.58366298014067       -1.60587548407197       -2.24335007674530
H           -6.65596492386054        0.68478264288085       -3.17254214988171
H           -4.68383206616290        2.13718632523259       -3.07096498663658
H           -2.60710796452680        1.38189374714379       -1.99478689455134
H            2.60723069969504        1.38167492687898       -1.99477269387125
H            4.68399731441409        2.13676953442708       -3.07100750429489
H            6.65599937416883        0.68418985347421       -3.17260940404284
H            6.58352457821456       -1.60644071488207       -2.24336407240118
H            5.84477961088264       -3.97108341939010       -1.06175419347760
H            4.64170485489699       -5.80181154173181        0.08693341336697
H            2.34400770578467       -5.48237361955110        0.87825806151917
H            1.16916510276487       -3.35363758969517        0.53629603268009
H            2.60696205465781       -1.38186885931353        1.99472691149937
H            4.68357384538112       -2.13717591996858        3.07111418968921
H            6.65571888481927       -0.68479901386995        3.17285057880745
H            6.58354377180941        1.60583852461816        2.24360263161871
H            5.84511062930402        3.97056753983024        1.06195738694000
H            4.64228833643860        5.80142727762726       -0.08678548488339
H            2.34460948651712        5.48222596682869       -0.87825701221517
H            1.16953553272465        3.35359941116612       -0.53639892586872
