  94
       -153.86895740
 N         -0.0037349588        3.3277981676       -2.1035526252
 C         -0.0039369091        2.4069644727       -1.4202194010
 C         -0.0026226650        1.2287613105       -0.6380572214
 C         -1.2291675380        0.6221581451       -0.3221401760
 N         -2.4246890371        1.2453909798       -0.6650732842
 C         -2.8559882347        2.4772739394       -0.1968115619
 C         -2.1738068093        3.4269781211        0.5446013707
 C         -2.8585889364        4.5674540489        0.9207944402
 C         -4.1944598349        4.7557990342        0.5796629741
 C         -4.8847599916        3.8006555865       -0.1409519909
 C         -4.2157525095        2.6499923302       -0.5323139079
 C         -4.6185081043        1.4698340439       -1.2475470049
 C         -5.8108297152        1.0611964239       -1.8270915320
 C         -5.8467909250       -0.1585686475       -2.4753139330
 C         -4.7052998935       -0.9473060674       -2.5847673849
 C         -3.5053614875       -0.5564631540       -2.0212701380
 C         -3.4845589914        0.6343388499       -1.3145308068
 C         -1.2272561656       -0.6256864304        0.3253592278
 N         -2.4215816876       -1.2501644651        0.6711930323
 C         -3.4794492844       -0.6357549347        1.3205771162
 C         -3.4948829582        0.5539448144        2.0293065654
 C         -4.6932956866        0.9497108835        2.5923425986
 C         -5.8386682531        0.1670032647        2.4797697270
 C         -5.8083749697       -1.0514260245        1.8288576799
 C         -4.6173763847       -1.4652227547        1.2501321600
 C         -4.2194724575       -2.6452926063        0.5320319566
 C         -4.8943225797       -3.7905787731        0.1348256479
 C         -4.2080484502       -4.7469382221       -0.5878537986
 C         -2.8698654438       -4.5658472615       -0.9241042888
 C         -2.1792952659       -3.4308934709       -0.5421762067
 C         -2.8582017618       -2.4789240087        0.1995323521
 C          0.0008580342       -1.2289380488        0.6410459446
 C          0.0013727118       -2.4064016416        1.4243535609
 N          0.0014018735       -3.3264524255        2.1086207588
 C          1.2273322027       -0.6217856145        0.3263330979
 N          2.4236408743       -1.2404180495        0.6748419238
 C          2.8617769892       -2.4727656688        0.2142764171
 C          2.1860758286       -3.4295771463       -0.5239180169
 C          2.8768536055       -4.5694067881       -0.8910439862
 C          4.2121557924       -4.7503426231       -0.5438969586
 C          4.8960368993       -3.7882282907        0.1736812735
 C          4.2209922464       -2.6380724916        0.5557918227
 C          4.6162801314       -1.4525730221        1.2663798872
 C          5.8048396916       -1.0367391229        1.8485685110
 C          5.8337975759        0.1863009628        2.4909855091
 C          4.6888445762        0.9710318039        2.5919052338
 C          3.4924911279        0.5727554879        2.0257531425
 C          3.4786366372       -0.6215487050        1.3248845139
 C          1.2253480731        0.6244615567       -0.3243991024
 N          2.4206913924        1.2437606842       -0.6759879633
 C          2.8647475525        2.4732091207       -0.2137392387
 C          2.1946160197        3.4318988536        0.5272066586
 C          2.8921622442        4.5664545365        0.8978145798
 C          4.2285469827        4.7408739286        0.5512412957
 C          4.9062484011        3.7778271431       -0.1707805628
 C          4.2243540646        2.6329300768       -0.5565983277
 C          4.6128229245        1.4481648490       -1.2721415011
 C          5.7977946292        1.0284278560       -1.8587809283
 C          5.8188625437       -0.1922278952       -2.5060885331
 C          4.6701191701       -0.9714444720       -2.6062911426
 C          3.4776299182       -0.5700487339       -2.0343782872
 C          3.4714159295        0.6224206765       -1.3303638505
 H         -1.1418987011        3.2929155206        0.8289327246
 H         -2.3452817732        5.3257589569        1.4929831919
 H         -4.6952071828        5.6600701032        0.8901025216
 H         -5.9246498756        3.9403807431       -0.3927676714
 H         -6.6885600054        1.6866600756       -1.7740776202
 H         -6.7675172136       -0.4999074661       -2.9231634841
 H         -4.7548270152       -1.8824036964       -3.1221947581
 H         -2.6203288905       -1.1621833409       -2.1371998960
 H         -2.6067765127        1.1548323647        2.1466314276
 H         -4.7387882026        1.8838946727        3.1316538664
 H         -6.7580401922        0.5123479734        2.9272775567
 H         -6.6892128355       -1.6721404907        1.7732888372
 H         -5.9356830909       -3.9247112593        0.3835038689
 H         -4.7133984634       -5.6467776663       -0.9036927352
 H         -2.3599650413       -5.3257472862       -1.4971694785
 H         -1.1456049613       -3.3021573758       -0.8222045700
 H          1.1545512026       -3.3015735007       -0.8122613334
 H          2.3687562447       -5.3332762400       -1.4604686840
 H          4.7178700094       -5.6543362129       -0.8471232194
 H          5.9355283477       -3.9225573710        0.4301592513
 H          6.6847040467       -1.6596549245        1.8021750361
 H          6.7513657206        0.5332738750        2.9409917834
 H          4.7323117960        1.9090124334        3.1248226441
 H          2.6051097654        1.1761193285        2.1359110499
 H          1.1623160627        3.3092218857        0.8152057625
 H          2.3887871407        5.3313572435        1.4699858382
 H          4.7395184229        5.6406283263        0.8581697707
 H          5.9462926917        3.9066177587       -0.4277999650
 H          6.6811500975        1.6463334873       -1.8120506620
 H          6.7335636368       -0.5418896731       -2.9597314415
 H          4.7076214326       -1.9075742986       -3.1428387477
 H          2.5871501060       -1.1692004026       -2.1427430895
