94
 energy: -153.853663066951 gnorm: 0.000152125509 xtb: 6.7.1 (edcfbbe)
N            0.00155260937973        3.40231569984028       -2.02395564202284
C            0.00103133496555        2.43834318628528       -1.38055238182236
C            0.00070663060623        1.28214865134004       -0.61793563434415
C           -1.23002972339025        0.62265048506078       -0.29984842861879
N           -2.43502579106779        1.24227299409302       -0.65209602898934
C           -2.85664324719641        2.48314421678866       -0.21909431080440
C           -2.20343708685726        3.40661265281673        0.58552228612609
C           -2.87278298925352        4.57202634340795        0.90726156077257
C           -4.16770126116324        4.81082886711123        0.45496688726255
C           -4.83322798418520        3.88332181073662       -0.32807658275742
C           -4.17803409807257        2.71061401637438       -0.66827153602584
C           -4.55706665973414        1.54798638628510       -1.42838985059754
C           -5.70317518713604        1.18847005238633       -2.11947709611430
C           -5.71945139226754       -0.02270958100696       -2.79063854746318
C           -4.60202774109437       -0.85174843242421       -2.80337054154927
C           -3.44813360790825       -0.51275352688514       -2.12045180808442
C           -3.44638580801776        0.67463953009963       -1.40317232978804
C           -1.23056408034016       -0.62074871219641        0.30091430818285
N           -2.43605548215445       -1.23860300588926        0.65462770081437
C           -3.44545828918367       -0.66955162928802        1.40724763353620
C           -3.44432695153450        0.51772829856126        2.12471668579577
C           -4.59669013770203        0.85836454467045        2.80939957121148
C           -5.71540757861454        0.03103969226864        2.79815232175777
C           -5.70208061806354       -1.17992477685814        2.12653297705798
C           -4.55754966220542       -1.54106654405054        1.43366713209926
C           -4.18148117183085       -2.70402545179251        0.67258957200981
C           -4.83919097022208       -3.87536606842641        0.33255038965155
C           -4.17642722648954       -4.80348036051040       -0.45211701558697
C           -2.88167961070790       -4.56671492920483       -0.90598188153113
C           -2.20978523924773       -3.40275807404804       -0.58428843371749
C           -2.86034230004297       -2.47856877445431        0.22165995216328
C           -0.00044236319335       -1.28205310301243        0.61757351414201
C           -0.00107956787991       -2.43830856403756        1.38011143690766
N           -0.00180880255908       -3.40235591738792        2.02344735934741
C            1.23032112846667       -0.62257232521756        0.29946212632096
N            2.43521745376294       -1.24246245444436        0.65150295657923
C            2.85627671360311       -2.48352771187549        0.21843394831458
C            2.20250446163774       -3.40689111663412       -0.58586225975279
C            2.87139783157052       -4.57253515558431       -0.90772313586962
C            4.16638294963107       -4.81169839455935       -0.45581452084251
C            4.83247205096908       -3.88428581588190        0.32684940739623
C            4.17777365355044       -2.71132972843998        0.66710638729190
C            4.55759707620429       -1.54862038790127        1.42669380808259
C            5.70426979526717       -1.18922370564709        2.11691350036143
C            5.72135885293590        0.02216370228410        2.78767094756698
C            4.60415649329608        0.85149393983046        2.80092559764774
C            3.44970208398676        0.51259780994074        2.11890372506339
C            3.44715852408719       -0.67496742169465        1.40191263185121
C            1.23085598657550        0.62087520939980       -0.30123526329178
N            2.43624364162188        1.23893107475134       -0.65483266342979
C            2.85998145943909        2.47917821161928       -0.22206900415776
C            2.20888057736290        3.40342317801143        0.58338698458473
C            2.88028105904563        4.56773200183214        0.90485386730786
C            4.17506494406736        4.80480376066489        0.45125814588590
C            4.83840126210708        3.87660060744213       -0.33281577085213
C            4.18121840552794        2.70488538909681       -0.67256208569572
C            4.55803079884510        1.54169978383065       -1.43291440864441
C            5.70312247693133        1.18052194546733       -2.12481941800142
C            5.71719799752533       -0.03071147526205       -2.79593265874911
C            4.59864136107055       -0.85824533498422       -2.80767885224624
C            3.44576157540321       -0.51761922942751       -2.12386048747841
C            3.44616889053674        0.66989852328783       -1.40676937341422
H           -1.20286383734516        3.22735690855535        0.94792276789294
H           -2.38093316329753        5.30890640835762        1.52414589043104
H           -4.65868816265643        5.73320911258315        0.72568276742811
H           -5.84208259593268        4.06470981289259       -0.66479569804413
H           -6.56013682495621        1.84361149356085       -2.13804665505907
H           -6.60493430121072       -0.32289566518483       -3.32986120841682
H           -4.63092720174751       -1.77629902498411       -3.35967124574427
H           -2.57547580276632       -1.14658842942569       -2.15984848151127
H           -2.57068353382619        1.15029412039132        2.16279151624617
H           -4.62337804199347        1.78289371959988        3.36585242091383
H           -6.59955388411909        0.33237799948670        3.33893213872535
H           -6.55999272303068       -1.83378871289031        2.14634823253189
H           -5.84804590574130       -4.05500545227638        0.67020471510809
H           -4.66952769178814       -5.72468434040423       -0.72299619767305
H           -2.39188169695762       -5.30418375811607       -1.52380127333272
H           -1.20928000471295       -3.22514898513004       -0.94770536032722
H            1.20178951053104       -3.22749095688243       -0.94781129886647
H            2.37902875631996       -5.30942824619658       -1.52417916353302
H            4.65701329493625       -5.73423855671820       -0.72662097909340
H            5.84151347776302       -4.06574874147706        0.66295583466132
H            6.56107614807704       -1.84457967031181        2.13505304215201
H            6.60727512251418        0.32224963983633        3.32623951484848
H            4.63364263506641        1.77617292581468        3.35698356717074
H            2.57723966439843        1.14666811324516        2.15874749955858
H            1.20832163732690        3.22564431281499        0.94657356708524
H            2.38996345552212        5.30534470718788        1.52209092228724
H            4.66767365540345        5.72638610686288        0.72174208581544
H            5.84733365493898        4.05639189571181       -0.67015747900047
H            6.56089496465821        1.83457473108117       -2.14426844040461
H            6.60183825629566       -0.33213748205206       -3.33585591442697
H            4.62593384639580       -1.78303171591774       -3.36367816414950
H            2.57226521762799       -1.15035939054287       -2.16238128602088
