  106
       -165.20450667
 O          0.0152347981        4.5610679309        0.0260462028
 C          0.0049735129        3.2986856789        0.0138913852
 C         -1.2609450364        2.5894806258        0.0117997960
 C         -1.4303904618        1.2891100846        0.5222265247
 C         -2.6672120612        0.6893974414        0.5201317020
 C         -3.7804787643        1.3702895186        0.0251827351
 N         -5.0530467179        0.7305533715        0.0120423580
 C         -5.9739949735        1.0440183478        0.9908984360
 C         -5.6481054625        1.9674255228        1.9932603360
 C         -6.5612579210        2.2961987164        2.9706897372
 C         -7.8191210851        1.7113969449        2.9786170164
 C         -8.1438360738        0.7870975355        2.0034850760
 C         -7.2387651779        0.4411328913        1.0114498412
 C         -7.6415607936       -0.5869171366       -0.0128399321
 C         -8.9205005689       -0.1693558218       -0.7177180530
 C         -9.1321298509        0.9391802088       -1.5062707049
 C        -10.3931297105        1.1275413087       -2.0568687939
 C        -11.4143886955        0.2204568007       -1.8184528460
 C        -11.2042690922       -0.8962220454       -1.0251400897
 C         -9.9490287982       -1.0896023832       -0.4725975598
 C         -9.4316234192       -2.1439507759        0.3863671118
 C        -10.0376940056       -3.2729603415        0.9120429310
 C         -9.2859853044       -4.1158789687        1.7150493488
 C         -7.9553295731       -3.8394649027        1.9893611739
 C         -7.3417587717       -2.7091533543        1.4654290223
 C         -8.0860474189       -1.8698370238        0.6672625422
 C         -6.5544810292       -0.8657799401       -1.0170715372
 C         -6.7888261492       -1.7994751587       -2.0152891727
 C         -5.8337808014       -2.0772062569       -2.9752095674
 C         -4.6235407822       -1.3998674694       -2.9471465421
 C         -4.3707706969       -0.4694094671       -1.9634835454
 C         -5.3249051653       -0.1952343811       -0.9744544493
 C         -3.6406995482        2.6822934618       -0.4343305130
 C         -2.4088926439        3.2837876753       -0.4270487810
 C          1.2589267733        2.5681373156        0.0020999040
 C          1.4052400474        1.2751824002       -0.5332384114
 C          2.6323727661        0.6557785009       -0.5481386240
 C          3.7578906333        1.3092018742       -0.0444895481
 N          5.0232598385        0.6538712937       -0.0499223004
 C          5.9209933342        0.9373024948       -1.0586902206
 C          5.5661454041        1.8212511475       -2.0863879240
 C          6.4525150824        2.1136713957       -3.0994660089
 C          7.7114098007        1.5312249036       -3.1175447992
 C          8.0669127195        0.6507916785       -2.1127607168
 C          7.1893600947        0.3421888976       -1.0843907944
 C          7.6334205266       -0.6151948618       -0.0098340762
 C          8.8573437276       -0.0690619585        0.7071244743
 C          8.9631298692        1.0886762619        1.4444765173
 C         10.1903058093        1.3981436146        2.0160830907
 C         11.2824010752        0.5607004263        1.8484007736
 C         11.1785788555       -0.6053689514        1.1068701157
 C          9.9574475849       -0.9197032877        0.5338860493
 C          9.5442295255       -2.0502682802       -0.2835487062
 C         10.2463029882       -3.1562354202       -0.7332439564
 C          9.5821160915       -4.0922026912       -1.5099959253
 C          8.2437914643       -3.9290678069       -1.8333830189
 C          7.5342279483       -2.8222832066       -1.3857864734
 C          8.1909976322       -1.8908806307       -0.6132326727
 C          6.5438861832       -0.9196470660        0.9845626124
 C          6.7896842941       -1.8467645749        1.9860234833
 C          5.8366017667       -2.1353975312        2.9448204572
 C          4.6168210329       -1.4755873018        2.9127394373
 C          4.3530464558       -0.5506801745        1.9266874653
 C          5.3057817462       -0.2648005480        0.9398158574
 C          3.6410411575        2.6132424956        0.4417530778
 C          2.4187679117        3.2343274127        0.4518888194
 H         -0.5926200960        0.7684037352        0.9602037563
 H         -2.7935191140       -0.3093266208        0.9147704949
 H         -4.6691745463        2.4201026665        1.9969155024
 H         -6.2899026561        3.0112473598        3.7323901517
 H         -8.5371985181        1.9688610489        3.7415941189
 H         -9.1170031090        0.3180439823        2.0063493337
 H         -8.3367354109        1.6460631352       -1.6930791100
 H        -10.5800670722        1.9909016783       -2.6780205589
 H        -12.3871582751        0.3874071683       -2.2574516940
 H        -12.0026651948       -1.5999850750       -0.8421933058
 H        -11.0737900593       -3.4923664951        0.7015674569
 H         -9.7425364493       -5.0006989274        2.1339001694
 H         -7.3891669633       -4.5106345465        2.6180308253
 H         -6.3050880441       -2.4937439843        1.6800308793
 H         -7.7394269087       -2.3123220190       -2.0351842873
 H         -6.0332559504       -2.8091959656       -3.7423716377
 H         -3.8734479338       -1.5968884136       -3.6981185719
 H         -3.4313662478        0.0604968816       -1.9516614194
 H         -4.5116559656        3.2102721578       -0.7954767991
 H         -2.2812223443        4.2978808895       -0.7733896358
 H          0.5574675198        0.7764076651       -0.9774910657
 H          2.7414047617       -0.3365934324       -0.9632597324
 H          4.5862521089        2.2720691159       -2.0801687231
 H          6.1596333732        2.7984424783       -3.8808067754
 H          8.4081812297        1.7595625638       -3.9090821779
 H          9.0437255125        0.1894261653       -2.1196122819
 H          8.1124787370        1.7415729103        1.5760012409
 H         10.2947112775        2.3017013931        2.5981595254
 H         12.2271387852        0.8216910273        2.3025967840
 H         12.0322090493       -1.2543754001        0.9789637965
 H         11.2886744032       -3.2874666889       -0.4840351904
 H         10.1139764927       -4.9609780443       -1.8693064849
 H          7.7470413961       -4.6712162341       -2.4406259344
 H          6.4913751994       -2.6956021792       -1.6378533609
 H          7.7478388223       -2.3451548153        2.0101702490
 H          6.0452188710       -2.8620566952        3.7145690245
 H          3.8677689617       -1.6821401194        3.6622119487
 H          3.4056696093       -0.0352397426        1.9104284063
 H          4.5217437497        3.1204490380        0.8087616627
 H          2.3091333936        4.2430873153        0.8191816228
