  40
        -70.20892542
 C          5.4985725387        1.4078839976       -1.8807711596
 C          4.4915902059        0.7179770665       -1.0320140148
 N          3.2455937346        0.9026358413       -1.2062759013
 C          2.3620532239        0.2382966569       -0.3843344634
 C          0.9941876412        0.4252906610       -0.5614852608
 C          0.0937131238       -0.2380895607        0.2591590040
 N         -1.2863583415       -0.0472044484        0.0969519612
 C         -2.1278672734       -1.1370226616       -0.1616529208
 C         -1.6380263586       -2.4194751669       -0.3763932100
 C         -2.4982127500       -3.4762595324       -0.6320704326
 C         -3.8613488119       -3.2677824958       -0.6938089549
 C         -4.3633230044       -1.9867380137       -0.5254614197
 C         -3.5086832039       -0.9289577799       -0.2721818095
 O         -4.0779787182        0.3128082528       -0.1591320924
 C         -3.2409150477        1.3759762283        0.0634067130
 C         -3.8335711584        2.6215678143        0.1677650084
 C         -3.0646372002        3.7430514706        0.4359154254
 C         -1.7037688461        3.6037487757        0.6198052041
 C         -1.1047193647        2.3581857141        0.5116691133
 C         -1.8547493448        1.2295682242        0.2051558023
 C          0.5623371624       -1.1017353276        1.2626137007
 C          1.9100110239       -1.2959055850        1.4401866808
 C          2.8260040826       -0.6299898893        0.6215575219
 C          4.2607083032       -0.8097981123        0.7825690703
 O          4.8119621363       -1.5132166201        1.5914083882
 O          5.0428483641       -0.0885167133       -0.0953146187
 H          4.9902482803        2.0131962188       -2.6233844223
 H          6.1335106688        2.0355489077       -1.2576953567
 H          6.1357713393        0.6712937930       -2.3666838665
 H          0.6561218016        1.0798884955       -1.3487973056
 H         -0.5743342086       -2.5962986365       -0.3535047365
 H         -2.0883473348       -4.4622225991       -0.7870369056
 H         -4.5351112867       -4.0874451013       -0.8861534446
 H         -5.4198340711       -1.7826108936       -0.5928569738
 H         -4.9024316929        2.6881150278        0.0430006403
 H         -3.5344460825        4.7106312747        0.5124056241
 H         -1.0930694437        4.4619688796        0.8533832156
 H         -0.0434502586        2.2666287321        0.6789519833
 H         -0.1509221673       -1.5994369805        1.9018946030
 H          2.2879345793       -1.9485219238        2.2117956670
