  40
  -69.9920836746000       0.785716222250258      !
 C          5.4985725387        1.4078839976       -1.8807711596
 C          4.4915902059        0.7179770665       -1.0320140148
 N          3.2455937346        0.9026358413       -1.2062759013
 C          2.3620532239        0.2382966569       -0.3843344634
 C          0.9941876412        0.4252906610       -0.5614852608
 C          0.0937131238       -0.2380895607        0.2591590040
 N         -1.2863583415       -0.0472044484        0.0969519612
 C         -2.1278672734       -1.1370226616       -0.1616529208
 C         -1.6380263586       -2.4194751669       -0.3763932100
 C         -2.4982127500       -3.4762595324       -0.6320704326
 C         -3.8613488119       -3.2677824958       -0.6938089549
 C         -4.3633230044       -1.9867380137       -0.5254614197
 C         -3.5086832039       -0.9289577799       -0.2721818095
 O         -4.0779787182        0.3128082528       -0.1591320924
 C         -3.2409150477        1.3759762283        0.0634067130
 C         -3.8335711584        2.6215678143        0.1677650084
 C         -3.0646372002        3.7430514706        0.4359154254
 C         -1.7037688461        3.6037487757        0.6198052041
 C         -1.1047193647        2.3581857141        0.5116691133
 C         -1.8547493448        1.2295682242        0.2051558023
 C          0.5623371624       -1.1017353276        1.2626137007
 C          1.9100110239       -1.2959055850        1.4401866808
 C          2.8260040826       -0.6299898893        0.6215575219
 C          4.2607083032       -0.8097981123        0.7825690703
 O          4.8119621363       -1.5132166201        1.5914083882
 O          5.0428483641       -0.0885167133       -0.0953146187
 H          4.9902482803        2.0131962188       -2.6233844223
 H          6.1335106688        2.0355489077       -1.2576953567
 H          6.1357713393        0.6712937930       -2.3666838665
 H          0.6561218016        1.0798884955       -1.3487973056
 H         -0.5743342086       -2.5962986365       -0.3535047365
 H         -2.0883473348       -4.4622225991       -0.7870369056
 H         -4.5351112867       -4.0874451013       -0.8861534446
 H         -5.4198340711       -1.7826108936       -0.5928569738
 H         -4.9024316929        2.6881150278        0.0430006403
 H         -3.5344460825        4.7106312747        0.5124056241
 H         -1.0930694437        4.4619688796        0.8533832156
 H         -0.0434502586        2.2666287321        0.6789519833
 H         -0.1509221673       -1.5994369805        1.9018946030
 H          2.2879345793       -1.9485219238        2.2117956670
  40
  -69.9906113040000       0.165428770620534      !
 C          5.5045153435        1.3641496512       -1.9061223070
 C          4.4949979065        0.6942779146       -1.0408962585
 N          3.2494274578        0.8969283119       -1.2031441233
 C          2.3643224676        0.2452266451       -0.3745628265
 C          0.9969256782        0.4434061927       -0.5471887757
 C          0.0943916712       -0.2162765009        0.2735038984
 N         -1.2861849130       -0.0305304215        0.1078723136
 C         -2.1171583298       -1.1261213156       -0.1607281470
 C         -1.6139415669       -2.4014086167       -0.3869364070
 C         -2.4630738834       -3.4648306038       -0.6515591537
 C         -3.8282907643       -3.2698069778       -0.7109152824
 C         -4.3435009589       -1.9954508589       -0.5315853635
 C         -3.4999032709       -0.9310885469       -0.2691767703
 O         -4.0810218127        0.3040048107       -0.1444012472
 C         -3.2525395606        1.3753058095        0.0720813703
 C         -3.8559731243        2.6159341406        0.1725293243
 C         -3.0964681445        3.7452572066        0.4348644054
 C         -1.7339997590        3.6186399567        0.6163022613
 C         -1.1239507106        2.3780165459        0.5116583612
 C         -1.8647053841        1.2416358733        0.2117351116
 C          0.5596409117       -1.0810884771        1.2778925173
 C          1.9059829568       -1.2846897986        1.4526661202
 C          2.8244677611       -0.6277171211        0.6292970814
 C          4.2573296416       -0.8260444245        0.7796020760
 O          4.8066700596       -1.5357209277        1.5841826918
 O          5.0417008763       -0.1166576251       -0.1072190379
 H          5.3354555123        1.0875380411       -2.9445546704
 H          5.3943040663        2.4434923921       -1.8287993088
 H          6.5041417387        1.0689559691       -1.6013567746
 H          0.6618234000        1.1003277416       -1.3339398636
 H         -0.5484641167       -2.5673636443       -0.3654560033
 H         -2.0429916760       -4.4451636495       -0.8143312967
 H         -4.4935951956       -4.0946199997       -0.9102482399
 H         -5.4021763847       -1.8022199726       -0.5970517239
 H         -4.9257272372        2.6722492501        0.0501012338
 H         -3.5750453005        4.7086751309        0.5090864826
 H         -1.1308167080        4.4833934109        0.8452500648
 H         -0.0614549451        2.2963011968        0.6767080367
 H         -0.1562253968       -1.5747715680        1.9173646680
 H          2.2814968034       -1.9395488169        2.2233617949
  40
  -69.9894586960000       4.885500712920839E-002 !
 C          5.4781159263        2.3517937313       -0.3763697208
 C          4.4837630075        1.2518823687       -0.2421561562
 N          3.2428750829        1.5000327010       -0.1237350302
 C          2.3714129062        0.4364406294       -0.0020410272
 C          1.0162782729        0.6932665234        0.1391241210
 C          0.1029299787       -0.3526346385        0.2808670564
 N         -1.2423738757       -0.1080758473        0.4566265159
 C         -2.2189549146       -1.1311680449        0.3954947708
 C         -2.2100699966       -2.2373104171        1.2345100842
 C         -3.1665127931       -3.2272966409        1.0860850591
 C         -4.1468162956       -3.1109501987        0.1152934013
 C         -4.2127533609       -1.9765579258       -0.6743782360
 C         -3.2618797448       -0.9793658061       -0.5224520231
 O         -3.3860453102        0.1732681318       -1.2570760222
 C         -2.8650566433        1.2868198647       -0.6448457555
 C         -3.4277897144        2.5236084036       -0.9185781586
 C         -2.9711094334        3.6458216636       -0.2502311808
 C         -1.9936631972        3.5259470493        0.7227285395
 C         -1.4235080453        2.2933922225        0.9927800446
 C         -1.8165595509        1.1738123639        0.2725553143
 C          0.5896801717       -1.6754381507        0.1975316686
 C          1.9273828755       -1.9335695098        0.0557728754
 C          2.8508161905       -0.8873306520       -0.0221359244
 C          4.2720812753       -1.1208266054       -0.1555252255
 O          4.8360661203       -2.1888569521       -0.1833499501
 O          5.0461400266        0.0215684009       -0.2604662634
 H          4.9664583118        3.3071310106       -0.3342517464
 H          6.2118896360        2.2823951034        0.4241032991
 H          6.0072530517        2.2525875692       -1.3220877174
 H          0.7049653947        1.7227314781        0.1069132960
 H         -1.4521036591       -2.3176227759        1.9985927535
 H         -3.1407359893       -4.0920495156        1.7307522594
 H         -4.8796563607       -3.8922877715       -0.0113213088
 H         -4.9897000090       -1.8448569039       -1.4102488969
 H         -4.2167441576        2.5837781198       -1.6510144749
 H         -3.4005621856        4.6101972614       -0.4721095724
 H         -1.6685109971        4.3938152773        1.2749746620
 H         -0.6745913449        2.1947548055        1.7629636599
 H         -0.0999697571       -2.5026028234        0.2140882185
 H          2.2919332287       -2.9471660800       -0.0055468075
