  102
       -157.15582170
 C         -7.0681957406        2.9816029488        1.5298483617
 C         -6.2890333055        3.4683238257        2.5667452894
 C         -4.9764197846        3.0578338425        2.7041533792
 C         -4.4202075154        2.1455519315        1.8089141879
 C         -3.0270285798        1.6996609209        1.9396085139
 C         -2.0185125263        2.6116286609        2.2953678024
 C         -0.6899606411        2.2436683199        2.3635737640
 C         -0.3681055801        0.9299796841        2.0607495233
 N          0.8514174618        0.3146355422        1.9645543399
 C          0.6844197148       -0.9725566267        1.5408592903
 C          1.6610701259       -1.9496459123        1.1970569321
 C          3.0033037947       -1.6492725398        0.8034882952
 C          4.0430719075       -2.5546289688        1.1213628676
 C          5.3602146774       -2.2889475209        0.8804113873
 C          5.7030319581       -1.0812571040        0.2282327889
 C          4.6794928276       -0.1833396039       -0.1516454697
 N          5.2549358336        0.8576096413       -0.8455650864
 C          6.6058991345        0.6625982108       -0.9274872417
 C          7.5795110617        1.4385392084       -1.5310583701
 C          8.8902031095        0.9996654994       -1.4549885377
 C          9.2205776911       -0.1875881133       -0.7937694603
 C          8.2591543050       -0.9690472682       -0.1938048998
 C          6.9262898767       -0.5499932618       -0.2499488539
 C          3.3269400294       -0.4283671158        0.0748790436
 C          2.3060528013        0.4588568731       -0.4374490654
 C          2.4198544573        1.8515525839       -0.2756926226
 C          1.3792187283        2.7387307535       -0.5333210710
 C          1.5678780829        4.1740288050       -0.2880841957
 C          2.7777621139        4.7989655597       -0.5880336253
 C          2.9544217715        6.1495263297       -0.3551859061
 C          1.9266673106        6.9033394362        0.1863425038
 C          0.7191927256        6.2954612269        0.4882691035
 C          0.5392085106        4.9461573534        0.2513722343
 C          0.1390771168        2.2532872301       -0.9632004257
 C          0.0020366390        0.8928212433       -1.1896259548
 C          1.0870296283        0.0097930543       -0.9913523887
 N          0.7211217404       -1.2398959946       -1.4121469056
 C         -0.6070440449       -1.2347167289       -1.7500025187
 C         -1.4358204778       -2.2765212281       -2.1350876837
 C         -2.7721593544       -1.9947367834       -2.3345399152
 C         -3.2901973430       -0.6984944354       -2.1835053266
 C         -4.7294684933       -0.4508056591       -2.3514214139
 C         -5.6701495117       -1.3384697217       -1.8319576360
 C         -7.0233785563       -1.0896652504       -1.9634223106
 C         -7.4621313830        0.0477909767       -2.6205593883
 C         -6.5371272856        0.9368537631       -3.1428853928
 C         -5.1838482835        0.6920328685       -3.0075237765
 C         -2.4423541879        0.3501039407       -1.8486979562
 C         -1.1014935452        0.0849936125       -1.6254839409
 C          1.1565047657       -3.2728435762        1.0991718711
 C         -0.1938604286       -3.5725806368        1.1115166453
 C         -0.6377102827       -4.9573215855        0.9168670587
 C          0.0564801442       -6.0174087727        1.4999438731
 C         -0.3638446663       -7.3210730053        1.3194228120
 C         -1.4818921308       -7.5929557254        0.5479417041
 C         -2.1795609504       -6.5491875939       -0.0376601089
 C         -1.7656527492       -5.2441421121        0.1476684125
 C         -1.1499467386       -2.5457944198        1.2551959468
 C         -0.6968127065       -1.2573825153        1.4908110169
 C         -1.3745436243       -0.0192065984        1.7536327203
 C         -2.7001683470        0.3716006183        1.6877946188
 C         -5.2164497516        1.6602017738        0.7714871641
 C         -6.5264348977        2.0763981655        0.6321357356
 H         -8.0928176169        3.3062048136        1.4230509685
 H         -6.7085229170        4.1697518870        3.2737002802
 H         -4.3816954774        3.4280492576        3.5267460772
 H         -2.2911447301        3.6392173430        2.4860058818
 H          0.0773306032        2.9620550581        2.6121706287
 H          1.7397447274        0.7759009913        2.0702613457
 H          3.7796297666       -3.4568216762        1.6530661856
 H          6.1335634917       -2.9777852771        1.1815734460
 H          4.7429763124        1.5859279325       -1.3138330970
 H          7.3251408323        2.3539653650       -2.0451009000
 H          9.6734976478        1.5829960840       -1.9151306367
 H         10.2562704310       -0.4925318872       -0.7579082485
 H          8.5218687001       -1.8848272105        0.3134883631
 H          3.3146651899        2.2389556015        0.1919206898
 H          3.5806915870        4.2258608059       -1.0295608643
 H          3.8968537598        6.6178658216       -0.6001863293
 H          2.0655953107        7.9583826859        0.3702341560
 H         -0.0867816330        6.8774800425        0.9116209819
 H         -0.4006888556        4.4775748152        0.5028784335
 H         -0.6869776586        2.9229085095       -1.1380675581
 H          1.2907051992       -2.0652143028       -1.3299220717
 H         -1.0509962200       -3.2788939743       -2.2521057636
 H         -3.4417244105       -2.7899006343       -2.6286230712
 H         -5.3357083054       -2.2183114717       -1.3011376782
 H         -7.7399502783       -1.7839304925       -1.5485752863
 H         -8.5199685807        0.2410416492       -2.7240890375
 H         -6.8729763603        1.8251112812       -3.6584482509
 H         -4.4677171481        1.3824769959       -3.4287986051
 H         -2.8282134819        1.3496595081       -1.7153418591
 H          1.8548038494       -4.0645161925        0.8723508340
 H          0.9176418286       -5.8117046761        2.1189439128
 H          0.1802110605       -8.1301569065        1.7850937220
 H         -1.8088026472       -8.6123858003        0.4056621447
 H         -3.0509058673       -6.7553870184       -0.6426439963
 H         -2.3068851697       -4.4367629256       -0.3232873840
 H         -2.2041526833       -2.7658700320        1.2456158326
 H         -3.4689609068       -0.3449395448        1.4427971106
 H         -4.7996755650        0.9662248884        0.0568577127
 H         -7.1225342124        1.6927004405       -0.1832021615
