102
 energy: -157.243090123297 gnorm: 0.000034825423 xtb: 6.7.1 (edcfbbe)
C           -8.41095730418808        2.61216987245864        0.62361322544192
C           -8.62088943970240        1.37143856202764        0.04562981838118
C           -7.54799297146127        0.55174597327961       -0.25101059537361
C           -6.24467938730921        0.96075366166995        0.02157386885945
C           -5.10019692533639        0.09400935612120       -0.29841607245034
C           -5.16681420024877       -1.27902653214108       -0.02623636836672
C           -4.11587912515739       -2.12938013771161       -0.30218571321244
C           -2.97248937228586       -1.58538369269925       -0.86787540807693
N           -1.79768986758074       -2.19132083882881       -1.22792197823947
C           -0.95434430912562       -1.25232361550774       -1.76192805040786
C            0.34114109313216       -1.41673007536022       -2.24777336740319
C            1.03610169839696       -2.69883468540415       -1.99188738509415
C            1.35350794810863       -3.60843800974197       -3.00035997448385
C            1.93503699681640       -4.82726099227170       -2.70780968666203
C            2.19307622365212       -5.14431476085684       -1.38001289964662
C            1.87960447730694       -4.21507801895958       -0.35881306145791
N            2.23932974407057       -4.74135137635220        0.85475909305957
C            2.77506659298919       -5.98982151088819        0.66228318995807
C            3.26902291827489       -6.89293501627084        1.59072754154796
C            3.75662030190145       -8.09675884902826        1.11948388318014
C            3.75374094984156       -8.39866570496678       -0.24105088599159
C            3.26221164038906       -7.50331447881630       -1.16987665720238
C            2.76678581620361       -6.28551451352436       -0.72172964252240
C            1.31142139726984       -2.98170307544693       -0.64821808447742
C            1.03023789447343       -1.94613188096691        0.37019825002970
C            0.05318848621481       -2.07294612346194        1.34365265058172
C           -0.28418159931208       -1.01672589904235        2.20011811872865
C           -1.33882544025193       -1.19680156123522        3.21053989095451
C           -1.15789519525785       -0.73195531865944        4.51103541691111
C           -2.15048815588605       -0.89116656545968        5.45988281015743
C           -3.34325327010294       -1.50936875933070        5.12332322497458
C           -3.53521547340487       -1.97031488177982        3.83187108133221
C           -2.53971107198031       -1.82054060117122        2.88473223414975
C            0.35316323539093        0.21141028690384        2.07961642582975
C            1.35030658519296        0.36473072608381        1.12817289126753
C            1.70154885117089       -0.72580816996170        0.30317700842263
N            2.73401268419012       -0.35571612437958       -0.51631471432271
C            3.03323539155611        0.96235279353346       -0.29650767535817
C            3.97489492363630        1.77263136824506       -0.91029377375024
C            4.07543244129788        3.08011286730449       -0.48531372360776
C            3.26349730025793        3.59536885969147        0.53537275161679
C            3.42457668248375        4.99239023654600        0.96575071268736
C            3.70854221488415        5.99946184506676        0.04504451299024
C            3.85877059584976        7.31103282760487        0.45449495302080
C            3.73467127809459        7.64306830689212        1.79310374176375
C            3.46008017358235        6.65120751472292        2.71939264388905
C            3.30573545810096        5.33994054079772        2.31041066133940
C            2.31766441089144        2.77673286274818        1.14177913574475
C            2.19670731166910        1.45846338032642        0.73032766725717
C            0.95605203624967       -0.30020846246140       -2.78546637110804
C            0.36064086627126        0.96782039966354       -2.74768806355740
C            1.13170791427596        2.14280268341233       -3.17836335379689
C            1.94817930417308        2.10634026311767       -4.30574121157174
C            2.68622696148503        3.21457896894964       -4.67722573071644
C            2.61885395463125        4.37937264627577       -3.93147480656311
C            1.80893328476214        4.42767944484658       -2.80947998272735
C            1.07741209422967        3.31839877654055       -2.43262204532805
C           -0.91568202408892        1.12190546298608       -2.22160342509493
C           -1.59280344176375        0.00588764051137       -1.75387092960747
C           -2.88851962869360       -0.20476030160224       -1.16596061757063
C           -3.95499712398090        0.63080110930189       -0.87338845475429
C           -6.04573760852591        2.21161287083019        0.60143542203898
C           -7.11973447098873        3.02848216079453        0.90124804258590
H           -9.24979209079367        3.25161581578748        0.85635442914247
H           -9.62587074595698        1.04280208890274       -0.17755262731321
H           -7.71781727553018       -0.40768034509429       -0.71833301433945
H           -6.06034973005588       -1.67562579491280        0.43282543929712
H           -4.18241949989023       -3.18584504688546       -0.08364209238144
H           -1.58055155909540       -3.16776469120712       -1.12590063130172
H            1.12537711289783       -3.34668992696108       -4.02323229916752
H            2.17917281288616       -5.52441853939152       -3.49469515870169
H            2.12816449960950       -4.27667758349207        1.73958693395812
H            3.27212398523623       -6.66127906401727        2.64562406280397
H            4.14857259076968       -8.81985009932711        1.81937642256161
H            4.14370297888980       -9.35062433490160       -0.56922043050063
H            3.26116406658314       -7.74106009136657       -2.22302212830136
H           -0.47617044754656       -3.01120534195766        1.44032341128154
H           -0.22491308290853       -0.25718801398205        4.77996274753938
H           -1.99399374225215       -0.53122446066243        6.46670417315243
H           -4.12029801944808       -1.62864909432778        5.86396158292469
H           -4.46688300110365       -2.44442815066320        3.55897722405085
H           -2.70481436038235       -2.16068139826323        1.87365938834583
H            0.05705707472202        1.04014328079414        2.70456708160501
H            3.15577229743658       -0.94573057313017       -1.21225044229607
H            4.60984344854898        1.39309647919084       -1.69699182369014
H            4.81713456335849        3.72139447645843       -0.93688571454029
H            3.79682537149880        5.75265533611556       -1.00259078254564
H            4.07288444194397        8.07971089706129       -0.27442564227064
H            3.85390921294494        8.66789278466124        2.11264835623955
H            3.36968379104649        6.90097913191305        3.76691362141985
H            3.11238786594641        4.57070459146335        3.04393112791070
H            1.66659063782962        3.16709240188468        1.90960375998446
H            1.95527359608731       -0.39367914885667       -3.18668486226188
H            1.98902138927430        1.20890200824789       -4.90667200883599
H            3.31346955860824        3.17199227946054       -5.55637618499773
H            3.19391164416447        5.24531993498568       -4.22608516696154
H            1.74535043222198        5.33211860317721       -2.22219910574980
H            0.47432802827215        3.35360771633254       -1.53753249353512
H           -1.38005274919406        2.09544842071021       -2.19040649565737
H           -3.90461155498564        1.68294805130080       -1.11007110577832
H           -5.04134754969421        2.53380456297481        0.83550935666609
H           -6.94980071879953        3.99397010311961        1.35590893414627
