  73
       -117.10581300
 N          3.6572544780        0.6944430657       -0.8965600488
 C          2.5868301729        0.4798276282       -0.5428060829
 C          1.2452326534        0.2249099969       -0.1900402332
 C          0.3607644166        1.2994837193        0.0190732279
 N          0.8436139208        2.6064183876        0.0431006092
 C          1.8764361663        3.0762810502        0.8351643055
 C          2.6094989938        2.4186744885        1.8098093131
 C          3.5734827099        3.1390546394        2.4885471107
 C          3.7958793769        4.4868108353        2.2189767558
 C          3.0449499821        5.1553119314        1.2727290247
 C          2.0722977655        4.4503988112        0.5767601680
 C          1.1124851935        4.8203398716       -0.4269967897
 C          0.8331203209        6.0067532713       -1.0915209324
 C         -0.1684698687        6.0133878501       -2.0424527462
 C         -0.8745657987        4.8528175616       -2.3475861444
 C         -0.6117521020        3.6601807759       -1.7004950465
 C          0.3718705433        3.6550364627       -0.7244008475
 C         -0.9924277943        1.0573670668        0.2026011009
 C         -1.4819537989       -0.2475427718        0.1987777635
 N         -2.8355602725       -0.4912415452        0.4111443720
 C         -3.3603739025       -1.4329835342        1.2821241084
 C         -2.7119676529       -2.2854106960        2.1635001750
 C         -3.4892635950       -3.1112092761        2.9543446237
 C         -4.8795061322       -3.0874937086        2.8849208620
 C         -5.5314462252       -2.2183569048        2.0328627930
 C         -4.7709504714       -1.3804318154        1.2286699176
 C         -5.1091322966       -0.3612844056        0.2734286455
 C         -6.3153362009        0.1223376411       -0.2149212884
 C         -6.2903936012        1.1148687061       -1.1746662044
 C         -5.0827974217        1.6090799143       -1.6601175466
 C         -3.8706793281        1.1406343205       -1.1888793801
 C         -3.8885622588        0.1665063379       -0.2026320451
 C         -0.6055539088       -1.3150853953        0.0174966542
 C          0.7506548755       -1.0921059943       -0.1724716809
 N          1.6040423397       -2.1722770409       -0.3781712794
 C          2.7907279688       -2.4197086993        0.2901461212
 C          3.3703936923       -1.7325808282        1.3446037259
 C          4.5562927493       -2.2205017036        1.8592172217
 C          5.1475526203       -3.3743260875        1.3519477464
 C          4.5558846080       -4.0824906971        0.3249511183
 C          3.3652244259       -3.6089194554       -0.2089477170
 C          2.4810139267       -4.0948088399       -1.2326804095
 C          2.5172106863       -5.1919294286       -2.0825130086
 C          1.4889256896       -5.3611715870       -2.9886540848
 C          0.4434330131       -4.4448878257       -3.0645714387
 C          0.3865106226       -3.3445184496       -2.2295028097
 C          1.4034764666       -3.1843957565       -1.3008438384
 H          2.4345002044        1.3799710789        2.0423680789
 H          4.1638013667        2.6460797970        3.2462561127
 H          4.5611848241        5.0146719413        2.7674445736
 H          3.2039008104        6.2047421228        1.0773017157
 H          1.3944168699        6.9015541058       -0.8703227246
 H         -0.4028415469        6.9264621241       -2.5682806192
 H         -1.6396182675        4.8826465462       -3.1089780999
 H         -1.1448400416        2.7594222481       -1.9626849238
 H         -1.6579573638        1.8846691237        0.3899982015
 H         -1.6360484668       -2.2998223340        2.2480118385
 H         -3.0048911086       -3.7863213121        3.6438844865
 H         -5.4510048569       -3.7505286144        3.5164620143
 H         -6.6093724349       -2.1828054115        1.9927051123
 H         -7.2502643172       -0.2771323285        0.1471472709
 H         -7.2166948968        1.5076555430       -1.5653158757
 H         -5.0907764023        2.3718105611       -2.4242802090
 H         -2.9436539995        1.5164677242       -1.5916390102
 H         -0.9800766521       -2.3257144056        0.0162142103
 H          2.9166185375       -0.8471019951        1.7605534865
 H          5.0315225278       -1.6961240583        2.6744867965
 H          6.0764610207       -3.7218408765        1.7779019347
 H          5.0027433747       -4.9883987782       -0.0551865181
 H          3.3373907845       -5.8917604290       -2.0358273549
 H          1.4959504269       -6.2096400345       -3.6560437698
 H         -0.3396792045       -4.5938085604       -3.7929113567
 H         -0.4194417681       -2.6307874486       -2.3122090079
  73
       -117.10507588
 N          3.6786295489        0.7206432080       -0.9256207530
 C          2.5848953976        0.5077013475       -0.6515516930
 C          1.2414254115        0.2433324236       -0.3115328269
 C          0.4214412726        1.2654498688        0.2001862189
 N          0.9150500378        2.5627026886        0.3314919604
 C          0.8948283830        3.3179846252        1.4881295120
 C          0.4823850985        2.9641254888        2.7629458729
 C          0.5958626220        3.9099705024        3.7642579660
 C          1.1191814294        5.1748337798        3.5093574037
 C          1.5572639807        5.5225542293        2.2464404644
 C          1.4499180300        4.5896236150        1.2240953271
 C          1.8072236409        4.5984345051       -0.1680738330
 C          2.3569696289        5.5593043759       -1.0059555338
 C          2.5426112662        5.2460665699       -2.3376168473
 C          2.1716267750        4.0014667701       -2.8399893041
 C          1.6218173700        3.0295879241       -2.0258738222
 C          1.4633409179        3.3290370842       -0.6820369485
 C         -0.8908931723        0.9892598657        0.5524899382
 C         -1.4180936771       -0.2895507720        0.3789082023
 N         -2.7384224887       -0.5543896842        0.7266196810
 C         -3.3640973102       -0.1567030415        1.8980562461
 C         -2.8460655439        0.5058726465        3.0001964452
 C         -3.6904297277        0.7507974888        4.0668548212
 C         -5.0195163358        0.3374261728        4.0508764551
 C         -5.5333102441       -0.3520950663        2.9704846275
 C         -4.7023299749       -0.6076002717        1.8882744542
 C         -4.8921620072       -1.3047841358        0.6459974864
 C         -5.9855796933       -1.9371506773        0.0703827056
 C         -5.8395465580       -2.5027974753       -1.1807133768
 C         -4.6281022505       -2.4247576537       -1.8618272750
 C         -3.5276245738       -1.7980448564       -1.3077241089
 C         -3.6577656317       -1.2552583990       -0.0385795375
 C         -0.6139108813       -1.2999809060       -0.1460406046
 C          0.7079795262       -1.0472180084       -0.4787938334
 N          1.5084966676       -2.0824522897       -0.9613937873
 C          2.6936061397       -2.5251247972       -0.4022189392
 C          3.3392718813       -2.0961707019        0.7464755430
 C          4.5054307987       -2.7437669813        1.1071099845
 C          5.0126236611       -3.8002222386        0.3549094035
 C          4.3568445326       -4.2489796772       -0.7740276837
 C          3.1836310773       -3.6132291809       -1.1572598597
 C          2.2471359613       -3.8272281562       -2.2264519490
 C          2.1920795349       -4.7192619985       -3.2888322291
 C          1.1307111762       -4.6367594784       -4.1688745249
 C          0.1405303380       -3.6704886263       -4.0111322310
 C          0.1757070878       -2.7703151124       -2.9629753819
 C          1.2247242021       -2.8666375329       -2.0624915568
 H          0.1005700200        1.9767293128        2.9739203513
 H          0.2773697454        3.6600112665        4.7653007422
 H          1.1913164414        5.8873797475        4.3169274234
 H          1.9797218396        6.4967885318        2.0542826787
 H          2.6272304871        6.5302677381       -0.6203203391
 H          2.9724317479        5.9769591157       -3.0055730416
 H          2.3137871977        3.7901959246       -3.8890322732
 H          1.3273393170        2.0737457297       -2.4313941605
 H         -1.5165260029        1.7871136063        0.9194806493
 H         -1.8128369152        0.8109525300        3.0400349483
 H         -3.3069760087        1.2704490016        4.9321390659
 H         -5.6489945987        0.5499513454        4.9014588140
 H         -6.5571233580       -0.6931850553        2.9646927226
 H         -6.9292492226       -1.9778880110        0.5924036278
 H         -6.6755131240       -3.0030977793       -1.6451871419
 H         -4.5446001118       -2.8593687291       -2.8466305352
 H         -2.6045502912       -1.7269879963       -1.8602149985
 H         -1.0015587264       -2.3003396623       -0.2538379957
 H          2.9504783999       -1.2861653009        1.3445580633
 H          5.0322330839       -2.4242047008        1.9934819969
 H          5.9281712900       -4.2782327083        0.6685291851
 H          4.7410153525       -5.0789705281       -1.3470817386
 H          2.9683482611       -5.4567308702       -3.4236093186
 H          1.0692775113       -5.3225693522       -5.0001421894
 H         -0.6681466263       -3.6188925759       -4.7247733684
 H         -0.5810486240       -2.0070368165       -2.8608283964
  73
       -117.10486767
 N          3.6831883365        0.6424468401       -0.9611503601
 C          2.5875757885        0.4489725163       -0.6801064612
 C          1.2401432899        0.2169456797       -0.3331460863
 C          0.3612774987        1.2960103816       -0.1352491840
 N          0.8245411815        2.6075156256       -0.2472135209
 C          1.8358098943        3.1769825041        0.5041729489
 C          2.5949529559        2.6210487523        1.5214975485
 C          3.5224956318        3.4325465053        2.1464544648
 C          3.6854980543        4.7659756755        1.7792584386
 C          2.9157786326        5.3288562727        0.7807445482
 C          1.9776885378        4.5331877731        0.1367409521
 C          1.0103985583        4.7824056388       -0.8970117586
 C          0.6905339638        5.8941851746       -1.6645966099
 C         -0.3049016966        5.7785988118       -2.6152352699
 C         -0.9708903625        4.5720917248       -2.8158689903
 C         -0.6698035794        3.4517487520       -2.0645290674
 C          0.3137324655        3.5696137427       -1.0952156182
 C         -0.9633716303        1.0614567038        0.1983937735
 C         -1.4339409212       -0.2410321082        0.3610790839
 N         -2.7579745192       -0.4716971038        0.7143123278
 C         -3.1946350797       -1.3861382109        1.6620435053
 C         -2.4647250452       -2.2036926898        2.5115323290
 C         -3.1595983530       -3.0080005811        3.3954319928
 C         -4.5503414641       -2.9951492204        3.4505389231
 C         -5.2824635195       -2.1563510661        2.6338734690
 C         -4.6038797628       -1.3415416754        1.7379423979
 C         -5.0362902693       -0.3549610808        0.7865864437
 C         -6.2882528764        0.1075434324        0.4054475875
 C         -6.3652899629        1.0705125030       -0.5810881083
 C         -5.2141587407        1.5527966358       -1.1971834695
 C         -3.9577030844        1.1042763649       -0.8338753525
 C         -3.8702877981        0.1617487460        0.1795435021
 C         -0.5626139236       -1.3136308888        0.1711119796
 C          0.7597931126       -1.0955321639       -0.1804749612
 N          1.6059209942       -2.1828233797       -0.4018324108
 C          1.8832246129       -3.1826917723        0.5089231155
 C          1.4806764876       -3.3038494100        1.8294972798
 C          1.9325081146       -4.3976182118        2.5434092776
 C          2.7732045773       -5.3438448805        1.9626947984
 C          3.1965825323       -5.2136609298        0.6543473222
 C          2.7545713137       -4.1236758282       -0.0833012521
 C          2.9986019372       -3.6665742974       -1.4241096228
 C          3.7341965445       -4.1721365804       -2.4876323496
 C          3.7300957726       -3.4794049592       -3.6819578981
 C          2.9961798589       -2.3049665730       -3.8285711216
 C          2.2563880023       -1.7821425620       -2.7850650542
 C          2.2775124498       -2.4620942961       -1.5777805853
 H          2.4704225735        1.5914191827        1.8210401583
 H          4.1312418531        3.0232650868        2.9385650292
 H          4.4214549729        5.3668329568        2.2916692322
 H          3.0331128786        6.3661941084        0.5067596081
 H          1.2168349034        6.8256882646       -1.5229481844
 H         -0.5670084668        6.6315689420       -3.2226786586
 H         -1.7329737948        4.5080874622       -3.5782027385
 H         -1.1722062168        2.5119106347       -2.2402423844
 H         -1.6153998802        1.9011640570        0.3777902036
 H         -1.3868142253       -2.2093582694        2.5031238658
 H         -2.6081622465       -3.6553770727        4.0606732565
 H         -5.0573700362       -3.6400955623        4.1519289506
 H         -6.3597781446       -2.1273137639        2.6895866354
 H         -7.1793988070       -0.2852323904        0.8704623494
 H         -7.3281254741        1.4482432992       -0.8896725873
 H         -5.3016438464        2.2927280083       -1.9785976355
 H         -3.0809094530        1.4750696403       -1.3401593815
 H         -0.9232220262       -2.3263187752        0.2539966864
 H          0.8498399109       -2.5596946048        2.2925362988
 H          1.6321174163       -4.5169120683        3.5737426146
 H          3.1052241455       -6.1850193393        2.5521110495
 H          3.8625771323       -5.9386284018        0.2120644001
 H          4.2923292068       -5.0895204440       -2.3791042469
 H          4.2990909164       -3.8526927639       -4.5199140617
 H          3.0041106261       -1.7907640487       -4.7778241122
 H          1.6838679122       -0.8759210431       -2.9129496553
  73
       -117.10447546
 N          3.6751980278        0.6921654107       -0.9450539116
 C          2.5826116254        0.4867798252       -0.6615684177
 C          1.2385551030        0.2322381045       -0.3155183855
 C          0.3857551269        1.2925165040        0.0445944431
 N          0.8591086838        2.6028767172        0.0741662052
 C          1.9571280777        3.0594695706        0.7819429674
 C          2.7835825295        2.3783703768        1.6616833926
 C          3.7980673289        3.0910841919        2.2722776562
 C          3.9799913069        4.4500557538        2.0293385122
 C          3.1365712721        5.1398220247        1.1812190375
 C          2.1103330932        4.4447721076        0.5557657441
 C          1.0503953658        4.8364307569       -0.3327893039
 C          0.6898029857        6.0427958031       -0.9175570641
 C         -0.4084864622        6.0704259167       -1.7544955435
 C         -1.1357358108        4.9135276509       -2.0217060688
 C         -0.7948249638        3.7002808069       -1.4531377623
 C          0.2945490149        3.6726464782       -0.5960324094
 C         -0.9397618956        1.0374484723        0.3626611622
 C         -1.4294428529       -0.2666838642        0.3631170611
 N         -2.7566660671       -0.5147920956        0.6971650539
 C         -3.4381672200        0.0292284446        1.7737985804
 C         -2.9795570893        0.8600247644        2.7852072050
 C         -3.8745244069        1.2316027024        3.7714989653
 C         -5.1923570541        0.7824330479        3.7652089579
 C         -5.6456168902       -0.0708041703        2.7788117073
 C         -4.7643900244       -0.4571133934        1.7780793102
 C         -4.8860705657       -1.3307362390        0.6430264385
 C         -5.9384248111       -2.0713482625        0.1221558063
 C         -5.7254802310       -2.8029501790       -1.0294842832
 C         -4.4892248093       -2.7846523123       -1.6694105054
 C         -3.4271015760       -2.0542589694       -1.1688980722
 C         -3.6257386242       -1.3430489499        0.0050743976
 C         -0.5836871136       -1.3211608968        0.0270440626
 C          0.7357024273       -1.0816946521       -0.3273019111
 N          1.5551726515       -2.1527756572       -0.6797124565
 C          1.7623513711       -3.2841008115        0.0880472929
 C          1.2753360104       -3.5955185285        1.3481747615
 C          1.6667565624       -4.7962291751        1.9107929273
 C          2.5283151165       -5.6634823508        1.2441169034
 C          3.0314774664       -5.3474679058       -0.0026546735
 C          2.6509584272       -4.1482560912       -0.5893930140
 C          2.9751959867       -3.5083962705       -1.8349961787
 C          3.7579174634       -3.8763715274       -2.9210100370
 C          3.8244858394       -3.0246704126       -4.0055639977
 C          3.1084506544       -1.8305934015       -4.0247619558
 C          2.3215279161       -1.4440095430       -2.9566480153
 C          2.2800343285       -2.2794493348       -1.8513486955
 H          2.6463182439        1.3281575427        1.8697908864
 H          4.4615628380        2.5816689971        2.9546855214
 H          4.7866493377        4.9703765540        2.5231103221
 H          3.2639607214        6.1977543620        1.0097172571
 H          1.2622765794        6.9366431564       -0.7226300038
 H         -0.7063149779        6.9987516872       -2.2179252169
 H         -1.9822196850        4.9625742066       -2.6902310682
 H         -1.3560998197        2.8057114079       -1.6795116343
 H         -1.5906946515        1.8601485591        0.6108701583
 H         -1.9547839136        1.1978892462        2.8186755928
 H         -3.5402870135        1.8813770972        4.5662709440
 H         -5.8615914081        1.0981591398        4.5510847583
 H         -6.6606684071       -0.4377029876        2.7844499154
 H         -6.9024215276       -2.0664107772        0.6072034114
 H         -6.5291513686       -3.3877502286       -1.4502215491
 H         -4.3554466896       -3.3498233614       -2.5795807294
 H         -2.4822589178       -2.0324190386       -1.6904851594
 H         -0.9506620782       -2.3347034370        0.0392374057
 H          0.6196066485       -2.9224814271        1.8807171435
 H          1.2981036246       -5.0642146578        2.8896490052
 H          2.8091483969       -6.5929952821        1.7157584346
 H          3.7106260436       -6.0133970252       -0.5123504352
 H          4.2969286665       -4.8113822348       -2.9141680656
 H          4.4308750870       -3.2890272886       -4.8584427387
 H          3.1634260503       -1.1945359889       -4.8951384406
 H          1.7607879022       -0.5223844502       -2.9911406369
  73
       -117.10437798
 N          3.6795005868        0.6844394191       -0.9736264556
 C          2.5916669320        0.4873084921       -0.6660079029
 C          1.2539415915        0.2314984956       -0.2968527784
 C          0.3992101124        1.2872951368        0.0718182704
 N          0.8606578614        2.6013758894        0.0929693772
 C          1.9714642226        3.0707222493        0.7724731957
 C          2.8312771176        2.3990379844        1.6271290822
 C          3.8536853618        3.1235793961        2.2100230056
 C          4.0106418999        4.4853643223        1.9660470802
 C          3.1336458931        5.1659574726        1.1450966548
 C          2.0997669198        4.4586524949        0.5468090287
 C          1.0111820917        4.8389440970       -0.3114532985
 C          0.6198390619        6.0425003929       -0.8819640619
 C         -0.4998610704        6.0585797213       -1.6904095320
 C         -1.2174334949        4.8927260416       -1.9442427811
 C         -0.8458651485        3.6821574271       -1.3892413140
 C          0.2642295883        3.6660622336       -0.5588274827
 C         -0.9224718411        1.0232707335        0.4000821642
 C         -1.4077845857       -0.2820069554        0.3917137677
 N         -2.7381593821       -0.5337736597        0.7123578067
 C         -3.4280813906       -0.0034067152        1.7894268370
 C         -2.9678048805        0.7878431110        2.8312808268
 C         -3.8707057601        1.1500770399        3.8135533619
 C         -5.1977791026        0.7307481521        3.7716627764
 C         -5.6540009268       -0.0809541334        2.7519501117
 C         -4.7648468437       -0.4582354982        1.7547696183
 C         -4.8847587081       -1.2933865532        0.5909331296
 C         -5.9445863512       -1.9873896035        0.0230810080
 C         -5.7252758734       -2.6877540666       -1.1465883880
 C         -4.4736774660       -2.6873922710       -1.7564633725
 C         -3.4038443528       -2.0033419077       -1.2095307500
 C         -3.6117431561       -1.3199079824       -0.0208408305
 C         -0.5587529652       -1.3325073650        0.0526941702
 C          0.7585764539       -1.0853549678       -0.3030992302
 N          1.5831023666       -2.1530977953       -0.6563799233
 C          1.8047866010       -3.2764856645        0.1177928751
 C          1.3576796375       -3.5642482311        1.3981669285
 C          1.7588578173       -4.7592490911        1.9657394214
 C          2.5895265263       -5.6440573402        1.2828610494
 C          3.0522855223       -5.3517281367        0.0148125238
 C          2.6629397467       -4.1575198396       -0.5766618202
 C          2.9506014522       -3.5367115243       -1.8407710886
 C          3.6926624976       -3.9250305222       -2.9479726102
 C          3.7306694241       -3.0869192805       -4.0444788241
 C          3.0283938726       -1.8845386767       -4.0532305284
 C          2.2823451886       -1.4769977784       -2.9637815172
 C          2.2668433081       -2.3010704280       -1.8496833308
 H          2.7139157271        1.3470069745        1.8376879900
 H          4.5432571196        2.6210540360        2.8713235329
 H          4.8247740181        5.0149326225        2.4371291955
 H          3.2415317397        6.2259962990        0.9732846998
 H          1.1850091207        6.9432870652       -0.6980707780
 H         -0.8223642540        6.9846428048       -2.1416131534
 H         -2.0811813805        4.9323740648       -2.5909643756
 H         -1.4002563740        2.7812436896       -1.6069532010
 H         -1.5757768631        1.8404491666        0.6603199787
 H         -1.9364983785        1.1021963787        2.8881711512
 H         -3.5363238440        1.7684255886        4.6330506229
 H         -5.8728445824        1.0379545985        4.5558536440
 H         -6.6773540328       -0.4228604102        2.7291100394
 H         -6.9190864703       -1.9704354783        0.4864943824
 H         -6.5349861178       -3.2353781349       -1.6043638466
 H         -4.3344320863       -3.2292223982       -2.6799427112
 H         -2.4454995672       -1.9943572146       -1.7064795296
 H         -0.9219113751       -2.3476791746        0.0626126255
 H          0.7238405597       -2.8775115421        1.9398495336
 H          1.4223677630       -5.0095074980        2.9607364800
 H          2.8794633524       -6.5681820823        1.7595164721
 H          3.7073987372       -6.0319014769       -0.5075164018
 H          4.2215992471       -4.8658194888       -2.9487017541
 H          4.3039450940       -3.3684451017       -4.9147077979
 H          3.0635804196       -1.2570835236       -4.9309790610
 H          1.7324896290       -0.5485389398       -2.9883158270
