164
 energy: -240.166563310906 gnorm: 0.000064100115 xtb: 6.7.1 (edcfbbe)
C           -8.48278593035745       -6.35081025925693        0.64268874206806
C           -7.82250708927976       -5.23740197849213       -0.11471478292213
C           -7.20415213938547       -5.48992402354112       -1.33552890363342
C           -6.58280034852883       -4.46563021396429       -2.02736349850321
C           -6.56953473963906       -3.18041968471036       -1.52040693268493
C           -7.17541801121801       -2.91046654222332       -0.29416711184242
N           -7.16133069452820       -1.61751987090744        0.23972050974920
C           -8.27637526324312       -1.13290636265045        0.93310850449773
C           -8.11753337231869       -0.33060238330334        2.06176175925589
C           -9.22911756227128        0.15019523979275        2.72699267591580
C          -10.50302024408733       -0.16631776179018        2.29053967025111
C          -10.68091240974386       -0.97284838990582        1.17024562329731
C          -12.06311099845723       -1.31435269092537        0.69896247213047
C           -9.56504539812907       -1.44384423703995        0.49907334271406
C           -6.03112409421734       -0.80430094734382        0.08063700408271
C           -6.18639402306119        0.56338316515576       -0.10877972491461
C           -5.06578389360042        1.37752750208373       -0.25810934362331
C           -3.76775009913966        0.82671040393021       -0.23886243514718
C           -3.63719863945406       -0.56576952897289       -0.05128452303057
C           -4.76117693932110       -1.36984363370167        0.11476787618459
N           -2.37847048877344       -1.13387098928171       -0.02842461292870
C           -2.30159073167466       -2.55836866392016        0.02241599164569
C           -2.30004598396833       -3.28677861682695       -1.15973550229219
C           -2.24736647678888       -4.66896242295250       -1.11806751376079
C           -2.19752745707652       -5.32640728758563        0.09953455192318
C           -2.19311174500021       -4.59999552865715        1.27902525975072
C           -2.24446946412322       -3.21786868226643        1.24420136416296
C           -1.20113084915412       -0.40787883606236       -0.01053129553259
C            0.00491759081518       -1.09044106973213        0.11854306702625
C            1.22059360179144       -0.41876920324924        0.21198246561187
C            1.24347908478860        0.99771823491274        0.25935311555041
C            0.02493497277317        1.63677083868537        0.04428621763417
C           -1.20245151268934        1.00403212289639       -0.13497338525049
B           -2.54506804002484        1.70956092637985       -0.40910512868581
C           -2.85393148128021        3.16748992873677       -0.81479719995502
C           -1.90980077589809        4.10246234155815       -1.25997247541936
C           -2.23246005064068        5.40550245098905       -1.55803636519879
C           -3.54827781755641        5.84911117846442       -1.41920556800101
C           -3.90076925817848        7.27590514219526       -1.71629238695827
C           -4.51165881191254        4.94374603142582       -1.02809028116303
C           -4.19590448170515        3.60565838810645       -0.75192065911521
N           -5.22464017464866        2.73735731259343       -0.43098915058946
C           -6.54648950562104        3.26216439530861       -0.29891165538057
C           -7.00616601377633        3.65415761303596        0.95145100946728
C           -8.29391651884073        4.14278888026128        1.07926985218607
C           -9.11791028279943        4.23887489101668       -0.02900233245419
C           -8.66850007226076        3.85221353801162       -1.28575395737918
C           -9.54528457183847        3.96823265035792       -2.49541424359725
C           -7.37380789056920        3.36257059751221       -1.40826916324304
B            2.59719858050761        1.69773929941208        0.49339655462216
C            2.92792992966429        3.17439271638804        0.80548441385966
C            1.99578322628699        4.15410567670389        1.17320161879813
C            2.33845459401197        5.46767121762411        1.39200582547293
C            3.66500506298688        5.87686095429406        1.25098201013144
C            4.03924475493895        7.31443114406253        1.45440354743608
C            4.61659597777156        4.93000228487111        0.93697685987850
C            4.27882831914633        3.58354646209151        0.73763427883986
N            5.29601768416342        2.67915348528104        0.48753206517769
C            6.63543146631054        3.16770022561064        0.40041663411150
C            7.41903406556586        3.26805952059384        1.54247351095090
C            8.72080582649854        3.72484837267639        1.43494362869054
C            9.23535571990732        4.08102999424121        0.20094238378350
C            8.45844692503446        3.98916154871877       -0.94911373696712
C            9.02708341809509        4.36025892969273       -2.28488792474729
C            7.15424615999988        3.52655829123631       -0.83577917018907
C            5.11400519956698        1.31528777378314        0.38496775840176
C            6.22035667146385        0.47793678098086        0.25640853141241
C            6.04423028123399       -0.89792360445930        0.17967377216662
N            7.16093011681555       -1.73913722774321        0.07793364919455
C            8.33554866403973       -1.42657340303314        0.77056886661820
C            8.28044817403628       -0.86869114685312        2.04704182431281
C            9.44955477392189       -0.55307078807230        2.71192071346926
C           10.68018887805675       -0.79695408474952        2.12821457633158
C           10.75476271957668       -1.36105134445294        0.85850080331703
C           12.08748247135824       -1.64239662260901        0.23092662487348
C            9.58064131342330       -1.66553849697662        0.18958684052071
C            7.09669506436438       -2.89335374119935       -0.70988237756267
C            6.40027040716624       -2.89102784318371       -1.91751496454745
C            6.33581656319476       -4.04304669363077       -2.67774295961143
C            6.96812684266452       -5.19997442859518       -2.25877882875380
C            7.67513730205165       -5.21854043105045       -1.06015544355723
C            8.34856864501006       -6.47744868503840       -0.60087126138841
C            7.72818550862029       -4.06582373283445       -0.29463632674830
C            4.76657866043547       -1.44579258513428        0.20228708331950
C            3.65389222092776       -0.61278934029623        0.27878428632737
C            3.80641285888578        0.78629320929110        0.38596255558346
N            2.38644174871680       -1.16105811883072        0.26973129228619
C            2.28824921241573       -2.58483689527170        0.23238225764506
C            2.26335879169150       -3.30698888737781        1.41829349436228
C            2.19252822263636       -4.68870629633404        1.38191581856679
C            2.14772075595251       -5.35140774047682        0.16668085342651
C            2.16691124936351       -4.63090786607910       -1.01616103648194
C            2.23612953377645       -3.24963071628080       -0.98666151012023
C           -7.79693994270956       -3.95075560793848        0.39681295096439
H           -9.12598878793530       -6.93214233379668       -0.01583094848105
H           -7.72855260761077       -7.02399825313982        1.05089997642973
H           -9.07878992836274       -5.96272949000284        1.46494294622016
H           -7.21277149933085       -6.49076020602166       -1.74221189477636
H           -6.11045304771326       -4.66668107249780       -2.97837999018015
H           -6.09352426202231       -2.38025686167473       -2.06764289271232
H           -7.12363898318053       -0.08992893862242        2.40895263510733
H           -9.09785179551221        0.77243735468366        3.60079230748032
H          -11.36596984386407        0.21131106175734        2.81948719647124
H          -12.59530798590665       -1.87479826574811        1.46719320089817
H          -12.02880523164369       -1.91380491473850       -0.20722502655295
H          -12.63044337694241       -0.40648257566267        0.49759996177572
H           -9.68617059118190       -2.06194294426596       -0.37964060606181
H           -7.18184192641776        0.97675802469421       -0.14243026183210
H           -4.66586863199209       -2.43162036867004        0.27860916950107
H           -2.34291058575666       -2.76252769756623       -2.10327412927596
H           -2.24871487792730       -5.23303964831390       -2.03892132827888
H           -2.15971524110685       -6.40505385066240        0.12967667352219
H           -2.15122329727829       -5.11043530192329        2.22991611534171
H           -2.24341916455011       -2.64083554972155        2.15758268403879
H           -0.00284797380743       -2.16863942622047        0.14778954601164
H            0.03138035023699        2.71221192358287        0.01303424558440
H           -0.88838913372407        3.78164819648852       -1.39429641927255
H           -1.46909052890306        6.09266440890111       -1.89632624701844
H           -4.95402848803937        7.46683333389906       -1.52392249775593
H           -3.30457532738769        7.94880411973144       -1.10047220222120
H           -3.68906921026187        7.50759753380450       -2.76025668279664
H           -5.53577534012918        5.27771669200612       -0.94472495907122
H           -6.35447844439739        3.57095886329061        1.80853369898431
H           -8.65847158068254        4.44716347328859        2.04936110772151
H          -10.12261864983171        4.61972637721368        0.08383683020461
H           -9.50290230978024        3.05581353434067       -3.08733640017149
H           -9.20467366248881        4.79021902384989       -3.12550611254199
H          -10.57724093570015        4.15757069848251       -2.21160733342131
H           -6.99930785147335        3.05301302825473       -2.37392753002433
H            0.96654343785483        3.86245370106784        1.31237688368374
H            1.58300719926333        6.18876261347863        1.67235914357733
H            3.56211231095012        7.93742617532393        0.69758877794798
H            3.69988817540160        7.66021973371143        2.43038357417241
H            5.11610680801193        7.45163930205200        1.38854199936063
H            5.64890597662998        5.23820082513979        0.85544688894869
H            7.00449398338940        2.98881453042337        2.49977147396764
H            9.33633803136436        3.80212381269892        2.31915030783565
H           10.25298468589271        4.43632812049604        0.12656326029471
H            9.65844970103327        5.24254819202102       -2.20325486857204
H            9.64087454958591        3.54315830787167       -2.66550082530875
H            8.23556795544309        4.55507186599783       -3.00409738375278
H            6.52691910286977        3.44137689837766       -1.71186798060236
H            7.22108408103459        0.87872465325633        0.22726567216693
H            7.32071664787487       -0.68665614515715        2.50762929978539
H            9.39847757106526       -0.11962254172514        3.70066719556794
H           11.58866001615981       -0.55008335799860        2.65824688319189
H           12.52819923058386       -2.53400489402193        0.67841491869002
H           12.77304092761299       -0.81329757814928        0.39547389125716
H           11.98639934214545       -1.81195294436327       -0.83821948550834
H            9.62228226257327       -2.09404479411812       -0.80214792778302
H            5.91535359711400       -1.98546482224774       -2.25102770075102
H            5.79380525328478       -4.03357878380681       -3.61273206399419
H            6.91651821121623       -6.09453529031449       -2.86231558766069
H            7.60242885469849       -7.22679925822037       -0.33614417072866
H            8.97311041913560       -6.29022789313080        0.26904782202935
H            8.96695390086147       -6.89096156381578       -1.39605233274396
H            8.26463014989150       -4.06733714748490        0.64400168806795
H            4.65750574672338       -2.51742073695421        0.14858520708582
H            2.30293815467219       -2.77903602180002        2.36000482248204
H            2.17461155608687       -5.24829919301512        2.30549519177836
H            2.09571382617038       -6.42960873113844        0.14139215631202
H            2.13109101039004       -5.14528231717608       -1.96498181678249
H            2.25366444797679       -2.67718446971935       -1.90254918114710
H           -8.26312689555763       -3.74166871966849        1.34955214828639
