164
 energy: -240.083345466521 gnorm: 0.000149978559 xtb: 6.7.1 (edcfbbe)
C          -12.03332897139583       -1.30010979273603       -1.21239776805603
C          -10.62475394824292       -0.94004717409498       -1.58072676296699
C          -10.37732434941395       -0.01718334474844       -2.59286748092943
C           -9.07753939182025        0.32858169959940       -2.91903631022163
C           -8.00992970787504       -0.23536605523440       -2.24866872293302
C           -8.23877854443707       -1.15885078756742       -1.22857576773995
N           -7.16723664865467       -1.72450556104965       -0.53104453006379
C           -7.21376794201761       -3.05762697387684       -0.11685898266618
C           -7.81649206012954       -4.02927456559426       -0.91655218287064
C           -7.85155337600680       -5.34388333477422       -0.49418978622182
C           -7.28717380261552       -5.71156678978233        0.71485676118539
C           -6.68005139266200       -4.75642972620585        1.52496705985808
C           -6.10176494763519       -5.14906958817720        2.85190132781224
C           -6.65026825818986       -3.43848039356153        1.10177306426441
C           -6.04485067971934       -0.93680466143649       -0.23662299600680
C           -6.21133170035793        0.39894156107508        0.13177747617363
C           -5.10030621084091        1.19153729592665        0.40851541854386
C           -3.79300513713225        0.66436544228531        0.33058251784664
C           -3.65267824230044       -0.69261329782199       -0.03575311699658
C           -4.76617220338266       -1.48137543349006       -0.31862103317388
N           -2.38225763714160       -1.24067246389972       -0.11786169688803
C           -2.29193921743970       -2.63954054007629       -0.38702526621731
C           -2.19236059931657       -3.09548413138447       -1.69579965812341
C           -2.12798458690052       -4.45432529481526       -1.94766353614757
C           -2.16204000146804       -5.35893760860731       -0.89907769865077
C           -2.25368600053908       -4.90343174811476        0.40548553960392
C           -2.31885579989253       -3.54582142913716        0.66474862463280
C           -1.21631001011842       -0.51870485054026       -0.00837465399379
C            0.00070462091273       -1.18298951201351       -0.15971806568497
C            1.21647310602424       -0.49984519941365       -0.14290041485722
C            1.22970073640496        0.92314265140541       -0.07944686339019
C           -0.00133733889192        1.53497812124992        0.17793732247306
C           -1.23107080182433        0.87678044288113        0.27648666199131
B           -2.58360861613764        1.52956474849943        0.61664921016386
C           -2.90689707856047        2.92059953060273        1.19350326385776
C           -1.97490626218111        3.80861131915420        1.75295799255660
C           -2.31672873135653        5.06335819354274        2.20613128961687
C           -3.63721278512124        5.50547170794349        2.13012388981610
C           -4.00703668774484        6.88337235494483        2.59138222478761
C           -4.59322655505274        4.63691188211640        1.63314082910951
C           -4.25827456191969        3.35225487402839        1.19221804040908
N           -5.27587714452310        2.51491432939220        0.76344712948800
C           -6.60830957155394        3.02640200965127        0.73300257846238
C           -7.42224092550302        2.93253246396359        1.85402937559276
C           -8.71662188347858        3.41963665238713        1.79539440146069
C           -9.19382392448870        3.99446808724610        0.63133503533438
C           -8.38680765168971        4.09463710440433       -0.49763925228381
C           -8.91109419162507        4.73171670325489       -1.74801985259531
C           -7.09047529475891        3.60342521481229       -0.43409689921488
B            2.58066004836515        1.64121598247835       -0.25355033981032
C            2.90100301946920        3.13241564685493       -0.46812079256212
C            1.96571944525233        4.13122390526724       -0.78092210517542
C            2.30431744031228        5.46045652499710       -0.90375363282454
C            3.62483897715031        5.87148051936771       -0.72511984746938
C            3.99086274254731        7.32219750251196       -0.82263866291107
C            4.58417107439397        4.90701212681153       -0.47032635856288
C            4.25257464201147        3.55179499326064       -0.36733731174300
N            5.27341954012891        2.63505438960078       -0.17198209874839
C            6.60803035562556        3.12503483669852       -0.04440821295178
C            7.12704238079849        3.39063021735960        1.21470025664784
C            8.42706137990025        3.85385139204427        1.32889991051132
C            9.20003121057221        4.04823771409346        0.19899151194924
C            8.69017442775850        3.78398510440417       -1.06899666548994
C            9.53689231895361        4.00582288403666       -2.28477698189416
C            7.38743778102746        3.32017439566502       -1.17788057943330
C            5.09933146539976        1.26492251882197       -0.14845522228852
C            6.21104188626035        0.43069560555317       -0.05583832178699
C            6.04713926873840       -0.95525710670919       -0.04336219631337
N            7.16733171274404       -1.79460932407233        0.03041109260885
C            7.10507818708492       -2.97383180190940        0.77801170472838
C            7.74288750571526       -4.13180069539725        0.33245590815185
C            7.66213308197840       -5.29245696701652        1.07729998394746
C            6.94706135730300       -5.32198368725889        2.26180026099938
C            6.30347774076250       -4.17635700270374        2.72157249976611
C            5.55244663610430       -4.20209973962411        4.01955572637683
C            6.39199108285390       -3.01254911582570        1.97719647740565
C            8.33650534978025       -1.45406577797523       -0.65634427955533
C            8.27249988208038       -0.84456835219019       -1.90933797123296
C            9.43678765540120       -0.50451191486729       -2.56971282148351
C           10.67179816749966       -0.76863510547198       -2.00356916534438
C           10.75519600706719       -1.38000190834077       -0.75605863422474
C           12.09231234836400       -1.64845113988768       -0.13200137152546
C            9.58622948168524       -1.71213493460602       -0.09222835169597
C            4.76867948003781       -1.50343706805580       -0.10729652717358
C            3.65285452787121       -0.67107813567853       -0.16330999297967
C            3.79174274877909        0.73413823085781       -0.19309061021415
N            2.38340599255629       -1.22566514929125       -0.20814151383393
C            2.29589551416883       -2.65004964143769       -0.24218987150391
C            2.16164080829557       -3.36636943723042        0.94073365923163
C            2.10203380405098       -4.74784698001461        0.90608937635289
C            2.17454051204254       -5.41724380374410       -0.30445733406162
C            2.30153829520041       -4.70261773637792       -1.48410709734138
C            2.36341526254359       -3.32035160301433       -1.45691917565145
C           -9.55283143500062       -1.49848121043200       -0.90509507289007
H          -12.49369482107067       -0.48440073446180       -0.65395963977193
H          -12.63116683314786       -1.47127010568302       -2.10581649418307
H          -12.05771976451740       -2.19454549341432       -0.59466962696908
H          -11.20557961794709        0.42728492586496       -3.12532287390497
H           -8.89210085560728        1.03874802533369       -3.71216968420870
H           -6.99586207747971        0.02909097789125       -2.50976880350488
H           -8.24906284342313       -3.74649317906573       -1.86514405264275
H           -8.31712898364301       -6.09156829132822       -1.12057029117281
H           -7.31817147222140       -6.74300751714733        1.03453554003127
H           -5.54117752051309       -6.07780816319362        2.76642109434855
H           -6.90336537928545       -5.30952323347928        3.57387477965533
H           -5.44664898520535       -4.37206166456944        3.23719081554637
H           -6.19048676385899       -2.68291544283844        1.72317141669961
H           -7.21115756531416        0.79844455430643        0.19280987710719
H           -4.65842818963754       -2.51419338529792       -0.61170700425205
H           -2.16860232788120       -2.38036244318200       -2.50510797809393
H           -2.05347417493740       -4.80665486582570       -2.96576963637407
H           -2.11421051139381       -6.41877638883440       -1.09924427333868
H           -2.27292143842878       -5.60647561239120        1.22450151531652
H           -2.39021258590724       -3.17725006979615        1.67744532737820
H            0.00180413430219       -2.25276433178388       -0.29439600748688
H           -0.00271700046720        2.60227727148168        0.31099828228900
H           -0.94881728975575        3.48834733566804        1.84571751150476
H           -1.55916390367477        5.71529722452315        2.62028039803609
H           -5.08290260311870        7.03564210587903        2.54221727255034
H           -3.67703246231737        7.04343828308389        3.61772951118780
H           -3.52141871071886        7.63415994789763        1.96696374822699
H           -5.62244390217608        4.96377326775615        1.60015385575532
H           -7.03742068725807        2.48119375874292        2.75662382174913
H           -9.35494694869169        3.34866918377939        2.66393817368661
H          -10.20544950619667        4.37189914771110        0.59440506820327
H           -9.07694489484980        5.79643465850181       -1.58407996573874
H           -9.86330442477780        4.28608650078298       -2.03080852962739
H           -8.20874638297171        4.61384859224574       -2.56882726912158
H           -6.43966394216522        3.66414331089693       -1.29472456426847
H            0.93955686348072        3.84304368331800       -0.94734690332165
H            1.54401494857338        6.19451031708577       -1.13508866987814
H            3.64591171220733        7.74020845354609       -1.76822245795562
H            3.51622551175740        7.88629638139636       -0.01886837721280
H            5.06762115513617        7.45860998966639       -0.75155004500378
H            5.61299642693022        5.21741552465658       -0.35977467001674
H            6.51230433397294        3.23426844411750        2.08872537442963
H            8.83659190193241        4.06348049658436        2.30618363128515
H           10.21326891673370        4.41012932707819        0.29684730000389
H            9.00765814624334        3.71139053451392       -3.18703204877663
H            9.80828256105218        5.05788726543968       -2.36730095969964
H           10.45801789899627        3.42933096216127       -2.21382152502201
H            6.96209988904001        3.10621568285019       -2.14811043667077
H            7.20879208578946        0.83561639995431        0.00509400697411
H            8.29323380714464       -4.11388833395253       -0.59693852276980
H            8.15588075740592       -6.18660122928836        0.72385032470322
H            6.88738705981022       -6.23572677859136        2.83501685869963
H            6.25161902688689       -4.26132815346986        4.85422519216393
H            4.90314194581175       -5.07428006697068        4.06857534236119
H            4.95063772506991       -3.30493689839102        4.13983403467259
H            5.90608508293006       -2.11181572393559        2.32506380134169
H            7.30977123090927       -0.64803425678447       -2.35745453480195
H            9.37942829335436       -0.03734107711574       -3.54253683402729
H           11.57675857000063       -0.50269166306417       -2.53035436035810
H           12.78681631972280       -2.04644557200320       -0.86954761037478
H           12.00385826988971       -2.35644215655483        0.68843295944089
H           12.51459112512143       -0.72194390004262        0.25853570934439
H            9.63485808106700       -2.17939474177115        0.88149449434563
H            4.66371080842052       -2.57716095891808       -0.10979809972144
H            2.10474313539177       -2.83237922307427        1.87777810324978
H            1.99877044541299       -5.30257105482188        1.82653197752333
H            2.12958177658837       -6.49569110677705       -0.32875089346227
H            2.35420832182036       -5.22178427337677       -2.42958752460258
H            2.46599555822404       -2.75273019107339       -2.37024983057170
H           -9.72961104773479       -2.20874674479752       -0.10943342525745
