  72
  -109.635247674200       0.556959634324106      !
 C          1.5411679915        1.0652933464        3.0531512559
 C          0.9552570249        2.1824796267        2.4865750090
 C          0.9968567963        2.3778393198        1.1081282314
 C          0.4580122085        3.6164470964        0.5173696393
 C          0.8733877298        4.8348526664        1.0482186073
 C          0.4634704850        6.0322899019        0.4939461088
 C         -0.3708421381        6.0276164901       -0.6114064680
 C         -0.7975398512        4.8255263532       -1.1425832310
 C         -0.4001316344        3.6122855302       -0.5873332997
 C         -0.9551909842        2.3694544165       -1.1538146468
 C         -0.8946456925        2.1342851580       -2.5251075794
 C         -1.4880073768        1.0093594370       -3.0681599580
 C         -2.1569845501        0.1109129679       -2.2577949184
 C         -2.2271157206        0.3371311748       -0.8851004328
 N         -2.9170881942       -0.5625286854       -0.0622275787
 C         -4.1938364393       -1.0401736895       -0.2853812762
 C         -5.0943253244       -0.7226535088       -1.2921677055
 C         -6.3337018805       -1.3329811552       -1.2662303575
 C         -6.6810940564       -2.2326941097       -0.2610317668
 C         -5.7995695921       -2.5322475851        0.7580781055
 C         -4.5478327028       -1.9311219863        0.7537934868
 C         -3.4208381709       -1.9908131726        1.6416054832
 C         -3.1636589883       -2.6915148714        2.8124439842
 C         -1.9358351553       -2.5313441850        3.4228713435
 C         -0.9663397077       -1.6967814336        2.8719228279
 C         -1.1987325145       -0.9891736492        1.7085671801
 C         -2.4384987034       -1.1282348232        1.1030304497
 C         -1.6211954430        1.4627994452       -0.3377357282
 C          1.6345761105        1.4363507842        0.3085091561
 C          2.2350533633        0.3197678854        0.8797829443
 N          2.9047443326       -0.6109033899        0.0738984540
 C          4.1902106753       -1.0720177100        0.2790342938
 C          5.1150544663       -0.7108495100        1.2482385379
 C          6.3584622273       -1.3120788618        1.2097698994
 C          6.6854597850       -2.2454743294        0.2286199531
 C          5.7778781339       -2.5909192133       -0.7525269186
 C          4.5215187256       -1.9997617814       -0.7351837502
 C          3.3699908807       -2.1012366786       -1.5869287312
 C          3.0827269270       -2.8497698039       -2.7206016000
 C          1.8360069342       -2.7210851608       -3.2994638701
 C          0.8782254389       -1.8689854782       -2.7547189832
 C          1.1403515723       -1.1136358348       -1.6283795633
 C          2.3977357129       -1.2235064832       -1.0543976992
 C          2.1853981381        0.1345877399        2.2592420532
 H          1.4954219348        0.9184687318        4.1220859245
 H          0.4526006168        2.9062417498        3.1110484520
 H          1.5447335916        4.8340145296        1.8949622027
 H          0.7986463364        6.9666436194        0.9189916515
 H         -0.6925585682        6.9583300443       -1.0545081804
 H         -1.4680934086        4.8171592584       -1.9899618336
 H         -0.3709985400        2.8322420867       -3.1615869041
 H         -1.4264507062        0.8294539203       -4.1312374765
 H         -2.6138586732       -0.7738310610       -2.6745407499
 H         -4.8433552052       -0.0122624294       -2.0654863024
 H         -7.0505730600       -1.1044009114       -2.0412098093
 H         -7.6584692636       -2.6915081711       -0.2782847719
 H         -6.0744410011       -3.2158026793        1.5472324202
 H         -3.9106037458       -3.3493969798        3.2307091875
 H         -1.7166768909       -3.0652117646        4.3356849224
 H         -0.0088273287       -1.6000030419        3.3614748141
 H         -0.4337310291       -0.3566015118        1.2872040327
 H         -1.7008920088        1.6501674967        0.7229437172
 H          1.6980313813        1.5888672958       -0.7588332556
 H          4.8780422239        0.0246120363        2.0023812984
 H          7.0948175339       -1.0495282781        1.9551502577
 H          7.6674469237       -2.6948456660        0.2343691143
 H          6.0363050032       -3.3019610668       -1.5227698510
 H          3.8206820704       -3.5208680034       -3.1337727492
 H          1.5928433971       -3.2934735473       -4.1825570145
 H         -0.0934638947       -1.7971633018       -3.2197129571
 H          0.3857247195       -0.4670274197       -1.2094161254
 H          2.6395289591       -0.7428608910        2.6941534495
  72
  -109.634192320800       0.182312681592450      !
 C          1.4135860947        1.0431844735        3.5012512595
 C          1.0756804579        2.2752428029        2.9676563621
 C          1.2467894836        2.5222004740        1.6061845892
 C          0.8137626136        3.7874518061        0.9847799417
 C          1.0841689778        5.0032762485        1.6043867615
 C          0.6973746497        6.1989802716        1.0273189659
 C          0.0325257504        6.1966584275       -0.1867705575
 C         -0.2463235335        4.9956210466       -0.8148086195
 C          0.1276587756        3.7884840587       -0.2412739570
 C         -0.1901347607        2.5103377796       -0.9173367107
 C          0.4710028920        2.1502221508       -2.0882302790
 C          0.3221093338        0.8734846067       -2.6003716053
 C         -0.5015955055       -0.0422899444       -1.9730715027
 C         -1.2458436852        0.3403123160       -0.8584551122
 N         -2.1273929511       -0.5662502825       -0.2602458459
 C         -2.9570993324       -1.4417331889       -0.9384659374
 C         -3.2187166384       -1.5491037167       -2.2974468732
 C         -4.1284016907       -2.5036785247       -2.7102586932
 C         -4.7804558652       -3.3320050587       -1.8000976094
 C         -4.5549966289       -3.2056022494       -0.4445883231
 C         -3.6460386300       -2.2513884313       -0.0076664010
 C         -3.2106203811       -1.8364555241        1.2950999258
 C         -3.5218586829       -2.2658786658        2.5782717769
 C         -2.9011339793       -1.6565460136        3.6497702955
 C         -1.9708811151       -0.6405853468        3.4471182132
 C         -1.6456099903       -0.1980014028        2.1789915761
 C         -2.2795083621       -0.7912702495        1.0960519956
 C         -1.0853193964        1.6208816476       -0.3384864508
 C          1.7862951561        1.5153684392        0.8168932930
 C          2.0372940082        0.2506273708        1.3317014784
 N          2.3707252618       -0.7748298140        0.4292826489
 C          3.2148429175       -0.6224040931       -0.6541916992
 C          4.2157855186        0.3160520881       -0.8595699053
 C          4.9497452365        0.2316049177       -2.0272048484
 C          4.7056878228       -0.7660932218       -2.9684128608
 C          3.7237703152       -1.7141585260       -2.7602352987
 C          2.9711854021       -1.6473228741       -1.5954467545
 C          1.8949981442       -2.4368966436       -1.0652210969
 C          1.1825686339       -3.5256153763       -1.5507331077
 C          0.1416051802       -4.0271565730       -0.7948374597
 C         -0.1807942646       -3.4652549258        0.4375362993
 C          0.5201844995       -2.3877267274        0.9448588291
 C          1.5542426928       -1.8674055463        0.1825921850
 C          1.8677265044        0.0152786020        2.6908954139
 H          1.2914101282        0.8689373727        4.5602216430
 H          0.6531213155        3.0397114196        3.6028185580
 H          1.6239363088        5.0078328501        2.5404013716
 H          0.9196089073        7.1325914995        1.5226364967
 H         -0.2686460720        7.1275272257       -0.6438992691
 H         -0.7717071112        4.9847877722       -1.7591571880
 H          1.1433826373        2.8530358523       -2.5588748265
 H          0.8804409744        0.5769223181       -3.4759705326
 H         -0.5571455277       -1.0588735419       -2.3295063926
 H         -2.7445451404       -0.8977423105       -3.0153186619
 H         -4.3427626773       -2.6054501197       -3.7640111228
 H         -5.4807360677       -4.0694683406       -2.1632982024
 H         -5.0776932472       -3.8278817820        0.2662900299
 H         -4.2330701820       -3.0642499865        2.7287621829
 H         -3.1302928710       -1.9726772005        4.6567393177
 H         -1.4846506747       -0.1883117451        4.2991503641
 H         -0.9018942581        0.5707436132        2.0478295428
 H         -1.6567359424        1.9318474387        0.5224401755
 H          1.9803684415        1.6917395321       -0.2274116230
 H          4.4192210152        1.0842936322       -0.1282983301
 H          5.7320755115        0.9528366577       -2.2129450106
 H          5.3008900532       -0.7984009510       -3.8690295862
 H          3.5434053532       -2.4947795127       -3.4841360548
 H          1.4348882862       -3.9605984164       -2.5064421700
 H         -0.4346513066       -4.8641497465       -1.1602590071
 H         -1.0003799303       -3.8746256933        1.0091830721
 H          0.2518423699       -1.9588669326        1.8970701933
 H          2.0877699236       -0.9564318495        3.1051535728
  72
  -109.634030633800       0.153642257120768      !
 C          1.4285844388        0.7788725771        3.2688059459
 C          0.9726134091        1.9939695631        2.7890266483
 C          1.0857795198        2.3042929466        1.4360449362
 C          0.6325060704        3.6081363010        0.9202914001
 C          1.0242506018        4.7724663050        1.5743742395
 C          0.6741840937        6.0163477697        1.0837238004
 C         -0.0722410570        6.1137092244       -0.0785843067
 C         -0.4737147979        4.9648914068       -0.7346105661
 C         -0.1388016508        3.7079979459       -0.2438294748
 C         -0.6377272818        2.5077217604       -0.9429940159
 C         -0.3354833272        2.2965699851       -2.2847958621
 C         -0.8031973351        1.1679761062       -2.9336496178
 C         -1.5914942689        0.2511953613       -2.2636117698
 C         -1.9305697555        0.4719961910       -0.9309942934
 N         -2.7650285443       -0.4333487042       -0.2620503406
 C         -3.9620295232       -0.9298338158       -0.7413980389
 C         -4.6473375018       -0.6163772134       -1.9066547202
 C         -5.8599516853       -1.2394351547       -2.1306179258
 C         -6.3907529807       -2.1491184150       -1.2186829423
 C         -5.7260463435       -2.4469357873       -0.0462711059
 C         -4.5059967317       -1.8319630851        0.2017203974
 C         -3.5832387410       -1.8786571646        1.3007409094
 C         -3.5582596015       -2.5810135375        2.4983224263
 C         -2.4893496528       -2.3957383722        3.3522741684
 C         -1.4505979467       -1.5294675146        3.0199543043
 C         -1.4522966780       -0.8210838773        1.8334502075
 C         -2.5297365268       -0.9927873040        0.9777881661
 C         -1.4445824195        1.5962632304       -0.2735894145
 C          1.6678346119        1.3777304835        0.5781279862
 C          2.1273437955        0.1585837034        1.0602753156
 N          2.7198346630       -0.7566807862        0.1791360547
 C          3.7597468848       -0.4783456510       -0.6847330516
 C          4.4702487984        0.7003019652       -0.8611986688
 C          5.5016825720        0.6998571575       -1.7804358231
 C          5.8300070095       -0.4438196458       -2.5051848704
 C          5.1392563435       -1.6244967524       -2.3196741363
 C          4.0977868297       -1.6492953123       -1.4015503420
 C          3.2034614602       -2.6772979745       -0.9479968480
 C          3.0334770128       -4.0134063344       -1.2864320787
 C          2.0364124111       -4.7330028475       -0.6589763606
 C          1.2067802569       -4.1332955941        0.2861372800
 C          1.3582713340       -2.8070960650        0.6427265458
 C          2.3716601705       -2.0844445597        0.0298107915
 C          2.0074955276       -0.1420512694        2.4145322655
 H          1.3373770372        0.5503833060        4.3205237405
 H          0.5109145297        2.7017758498        3.4613989052
 H          1.6296625913        4.6950830316        2.4660614162
 H          0.9891702635        6.9090415708        1.6034874954
 H         -0.3438760368        7.0824308444       -0.4709167887
 H         -1.0711346905        5.0330231955       -1.6325513608
 H          0.2850407628        3.0088484974       -2.8089078441
 H         -0.5460217305        0.9967571910       -3.9685130519
 H         -1.9392703728       -0.6410277224       -2.7616190538
 H         -4.2555420264        0.1018414447       -2.6110675088
 H         -6.4112291133       -1.0122526795       -3.0312670651
 H         -7.3407072297       -2.6164141874       -1.4314937678
 H         -6.1451364883       -3.1376720429        0.6699326018
 H         -4.3595405881       -3.2589882764        2.7509294087
 H         -2.4513824339       -2.9309649938        4.2894893611
 H         -0.6225538607       -1.4078567482        3.7031449652
 H         -0.6378666518       -0.1613192571        1.5800337568
 H         -1.7193129922        1.7784078498        0.7548149445
 H          1.7671340163        1.6003845910       -0.4734017448
 H          4.2345943347        1.5872921559       -0.2921326768
 H          6.0691192220        1.6055995027       -1.9371908559
 H          6.6430647136       -0.4031683071       -3.2147315623
 H          5.4032468268       -2.5147154846       -2.8705835017
 H          3.6677855070       -4.4736555472       -2.0291921394
 H          1.8882306078       -5.7733919502       -0.9072116882
 H          0.4239043712       -4.7151066075        0.7499147542
 H          0.6977336272       -2.3523750360        1.3645649213
 H          2.3767548115       -1.0856806912        2.7864419451
  72
  -109.633689486800       0.107085426962676      !
 C          1.3639028021        0.6695004813        3.2092774298
 C          0.9022951557        1.8858359776        2.7380013226
 C          1.0465300413        2.2198187824        1.3941097316
 C          0.6072696117        3.5332041890        0.8900524178
 C          1.0251812820        4.6847039464        1.5502788853
 C          0.7031816707        5.9385979888        1.0658006837
 C         -0.0406491309        6.0578957118       -0.0961923975
 C         -0.4702339684        4.9216596867       -0.7561137332
 C         -0.1636116613        3.6545589658       -0.2715117352
 C         -0.7047388622        2.4723551644       -0.9682992838
 C         -0.4741694585        2.2849831892       -2.3279085988
 C         -1.0134633242        1.1918666307       -2.9818327173
 C         -1.8034859803        0.2866419048       -2.2981088219
 C         -2.0609298829        0.4787208994       -0.9433306066
 N         -2.8939836068       -0.4144348548       -0.2552257318
 C         -4.1504815902       -0.8183696339       -0.6617230070
 C         -4.8952225946       -0.4170558972       -1.7616279831
 C         -6.1575781826       -0.9564618937       -1.9179374760
 C         -6.6776187862       -1.8692481292       -1.0028065197
 C         -5.9501893693       -2.2560346543        0.1047494636
 C         -4.6791582956       -1.7264563777        0.2845121874
 C         -3.6823734837       -1.8757684269        1.3072011716
 C         -3.6098236933       -2.6311372618        2.4701710042
 C         -2.4690234286       -2.5476763226        3.2433428827
 C         -1.4059573303       -1.7306255275        2.8653483478
 C         -1.4535175158       -0.9711683933        1.7119198287
 C         -2.6024708771       -1.0407632977        0.9390059086
 C         -1.5014832233        1.5648649086       -0.2810890479
 C          1.6629074364        1.3171986110        0.5348417598
 C          2.1440997834        0.1043040823        1.0122724743
 N          2.8055207177       -0.7726334663        0.1415054783
 C          3.8773108499       -0.4382588767       -0.6623886877
 C          4.5320651663        0.7769994257       -0.8025056955
 C          5.6123826440        0.8322748540       -1.6620499077
 C          6.0425546706       -0.2918744148       -2.3635666545
 C          5.4077897392       -1.5083994254       -2.2125127392
 C          4.3190988703       -1.5893541870       -1.3542620958
 C          3.4599828038       -2.6652099974       -0.9462216413
 C          3.3865191694       -4.0098107134       -1.2854320547
 C          2.4002284433       -4.7844188875       -0.7084247143
 C          1.4859361914       -4.2307990775        0.1852651282
 C          1.5397057745       -2.8966494304        0.5405926892
 C          2.5430691271       -2.1186468237       -0.0188555149
 C          1.9910191342       -0.2215418476        2.3575106884
 H          1.2448341356        0.4195516790        4.2531987175
 H          0.4132621290        2.5764517298        3.4089170533
 H          1.6282993380        4.5881618653        2.4417112315
 H          1.0383489124        6.8214882444        1.5895251218
 H         -0.2894701479        7.0342637488       -0.4846441077
 H         -1.0688574094        5.0081689030       -1.6516463840
 H          0.1431222748        2.9902786424       -2.8650202955
 H         -0.8149928520        1.0415811806       -4.0327372863
 H         -2.2166248421       -0.5736526594       -2.8024903316
 H         -4.5082814017        0.3032654314       -2.4667035200
 H         -6.7567463077       -0.6599889566       -2.7662780712
 H         -7.6682225323       -2.2689223139       -1.1613087509
 H         -6.3593958005       -2.9503395931        0.8232084975
 H         -4.4298261966       -3.2716984940        2.7579962865
 H         -2.3928578375       -3.1262827627        4.1520899418
 H         -0.5231562234       -1.6896885094        3.4867290895
 H         -0.6226364503       -0.3485189598        1.4193927183
 H         -1.7159676837        1.7229654954        0.7655574723
 H          1.7783973658        1.5588543455       -0.5111448111
 H          4.2183458935        1.6501296095       -0.2499390778
 H          6.1379894404        1.7673615214       -1.7889568903
 H          6.8908840997       -0.2072285108       -3.0264128252
 H          5.7504765736       -2.3833036065       -2.7442867264
 H          4.0865009073       -4.4345995883       -1.9891994096
 H          2.3270381134       -5.8327847052       -0.9570173910
 H          0.7141059447       -4.8562875643        0.6090256994
 H          0.8140673335       -2.4782690337        1.2207567381
 H          2.3757638241       -1.1607075183        2.7253748350
