  72
       -110.13277249
 C          1.8681519132        1.1757421502        3.2361796459
 C          2.5863478788        1.8361827448        2.2538944343
 C          2.8195342488        1.2247122759        1.0227974596
 C          3.4994550681        1.9298417979       -0.0794806251
 C          4.6433232322        2.6821297398        0.1672778868
 C          5.3004617505        3.3373715359       -0.8579793299
 C          4.8218974357        3.2473614614       -2.1537097045
 C          3.6837932253        2.5051604232       -2.4155034130
 C          3.0095556178        1.8511303318       -1.3939199498
 C          1.7847848423        1.0725654546       -1.6862977341
 C          1.8639175645       -0.1254096314       -2.3908342597
 C          0.7543456685       -0.9469703134       -2.4825132637
 C         -0.4438210435       -0.5748967399       -1.9023444128
 C         -0.5604616638        0.6679769420       -1.2824093217
 N         -1.7892429519        1.0724366753       -0.7501048510
 C         -3.0232556222        0.8715415940       -1.3431641962
 C         -3.3369772887        0.3741260824       -2.6005256215
 C         -4.6697754287        0.3085111677       -2.9589909029
 C         -5.6784497045        0.7368218112       -2.0994451566
 C         -5.3728462949        1.2684212487       -0.8632317621
 C         -4.0396153462        1.3454153245       -0.4834995272
 C         -3.3806274543        1.8611827670        0.6821236430
 C         -3.8473317706        2.4366131033        1.8563768201
 C         -2.9321905513        2.8210214357        2.8152518362
 C         -1.5686780883        2.6229979740        2.6146656796
 C         -1.0822074483        2.0517139029        1.4541451729
 C         -1.9937128162        1.6800352143        0.4755920972
 C          0.5597744277        1.4870117088       -1.1811847244
 C          2.3386899020       -0.0627411943        0.8252876034
 C          1.5395909985       -0.6882857180        1.7727752566
 N          0.9092839090       -1.8925761245        1.4129194903
 C          1.5055487675       -2.9017488889        0.6809881888
 C          2.8531888022       -3.1927910043        0.5263042329
 C          3.1922508272       -4.2912703113       -0.2402332467
 C          2.2186695234       -5.0915475373       -0.8339789227
 C          0.8756626253       -4.8178261520       -0.6674352798
 C          0.5110848929       -3.7170714632        0.0961127544
 C         -0.7525025575       -3.1433453622        0.4661534492
 C         -2.0689940468       -3.4539117472        0.1515348267
 C         -3.0758907397       -2.6454599937        0.6405046894
 C         -2.7825007946       -1.5485968415        1.4462549674
 C         -1.4808348088       -1.2260177936        1.7800555284
 C         -0.4640080527       -2.0223579683        1.2770976875
 C          1.3162750018       -0.0726591144        2.9986154526
 H          1.7074854955        1.6533251056        4.1915895658
 H          2.9450628623        2.8392820520        2.4314186590
 H          5.0315167281        2.7338660904        1.1743141545
 H          6.1889386850        3.9137230312       -0.6463543381
 H          5.3330746142        3.7538950243       -2.9588863850
 H          3.2993626097        2.4360690921       -3.4231635602
 H          2.8092577918       -0.4343471431       -2.8132527484
 H          0.8325333529       -1.9026195834       -2.9794821280
 H         -1.2852124821       -1.2498708236       -1.9089987297
 H         -2.5681474899        0.0635028352       -3.2910791204
 H         -4.9346390373       -0.0791097424       -3.9317702057
 H         -6.7086875614        0.6640501633       -2.4148391490
 H         -6.1499361415        1.6257663648       -0.2042723987
 H         -4.9067953572        2.5742538687        2.0127668862
 H         -3.2727631525        3.2732609243        3.7349958685
 H         -0.8706404568        2.9163844924        3.3851188281
 H         -0.0243767303        1.8840010609        1.3351828110
 H          0.4838326712        2.4529463144       -0.7061958449
 H          2.5469030641       -0.5830885893       -0.0940762135
 H          3.6129232624       -2.5844945492        0.9944048212
 H          4.2348166369       -4.5369572671       -0.3795520971
 H          2.5239587655       -5.9415328577       -1.4262148591
 H          0.1211750064       -5.4456957048       -1.1173921740
 H         -2.2944742302       -4.3057319777       -0.4728178347
 H         -4.1055555532       -2.8605148919        0.3961611178
 H         -3.5876537707       -0.9307036687        1.8150663469
 H         -1.2703477309       -0.3678325615        2.3979940380
 H          0.7203239475       -0.5638360095        3.7521655364
  72
       -110.13270821
 C          1.9437532983        0.8922448447        2.8735872243
 C          2.4153056346        1.6500328937        1.8172723299
 C          2.5262180177        1.0940544651        0.5450310401
 C          3.1204377987        1.8733528534       -0.5563750168
 C          4.3531131391        2.4841987085       -0.3413670404
 C          4.9981710031        3.1671259855       -1.3545880279
 C          4.4165528400        3.2451031420       -2.6089976851
 C          3.1894116045        2.6509181902       -2.8332944086
 C          2.5242710077        1.9686917655       -1.8182357090
 C          1.1831159481        1.4266601527       -2.1030619937
 C          0.9720591021        0.6274544468       -3.2238384509
 C         -0.3005004011        0.1870075019       -3.5385456981
 C         -1.3790879822        0.5434733567       -2.7505044950
 C         -1.1809364576        1.3452266556       -1.6287599474
 N         -2.2730542165        1.7215632587       -0.8361571629
 C         -3.4570969150        2.2598199468       -1.3012926591
 C         -3.8254009436        2.6041292194       -2.5940112979
 C         -5.0768712476        3.1584952172       -2.7830278274
 C         -5.9448768245        3.3771501446       -1.7156266505
 C         -5.5739458757        3.0615839960       -0.4240265442
 C         -4.3208002080        2.5034628918       -0.2087538052
 C         -3.6157599657        2.0846500653        0.9699759885
 C         -3.9412709352        2.0612320915        2.3195985303
 C         -3.0156412110        1.5631947641        3.2145823339
 C         -1.7851879730        1.0794779747        2.7764458570
 C         -1.4383748287        1.0926102366        1.4394119221
 C         -2.3548852916        1.6127360594        0.5380181984
 C          0.1003016121        1.7792082413       -1.3063230550
 C          2.1573247616       -0.2319299110        0.3496840361
 C          1.6956234475       -0.9974961385        1.4147775953
 N          1.3549173054       -2.3430174367        1.2209307752
 C          1.8147979271       -3.4040929270        1.9757549037
 C          2.7234564373       -3.4152393826        3.0242542320
 C          3.0363101119       -4.6343463605        3.5942719374
 C          2.4696072798       -5.8203709246        3.1327490752
 C          1.5834243273       -5.8183480443        2.0742777776
 C          1.2535866989       -4.6052658612        1.4844933986
 C          0.4097633108       -4.2399071142        0.3816524669
 C         -0.4068833334       -4.9631174171       -0.4774701719
 C         -1.1186163419       -4.2808492208       -1.4438542770
 C         -1.0326381275       -2.8947721279       -1.5513916787
 C         -0.2268543098       -2.1535281580       -0.7092672826
 C          0.5059495623       -2.8353581403        0.2502367439
 C          1.5875999485       -0.4298660248        2.6819759770
 H          1.8528935826        1.3354146735        3.8542076961
 H          2.6915614027        2.6826018506        1.9720181094
 H          4.8154814026        2.3993701932        0.6316182611
 H          5.9547960643        3.6320814725       -1.1682863329
 H          4.9153782630        3.7724601119       -3.4084575857
 H          2.7203643753        2.7299119074       -3.8036125354
 H          1.8121057070        0.3445617442       -3.8408875300
 H         -0.4530631601       -0.4415612995       -4.4033664283
 H         -2.3732830838        0.1949165968       -2.9855945508
 H         -3.1537147104        2.4572550604       -3.4264347024
 H         -5.3875707355        3.4316590836       -3.7808222435
 H         -6.9161584855        3.8092040803       -1.9053939720
 H         -6.2390521862        3.2470937119        0.4059048576
 H         -4.9011349892        2.4229929613        2.6564533812
 H         -3.2480540537        1.5385212860        4.2689300267
 H         -1.0845219354        0.6820518061        3.4954567780
 H         -0.4869611193        0.7030016404        1.1139295433
 H          0.2471406243        2.4234958268       -0.4520215703
 H          2.2638103429       -0.6837607519       -0.6255171707
 H          3.1820397077       -2.5039547126        3.3779086208
 H          3.7390877437       -4.6688304632        4.4138195395
 H          2.7381971162       -6.7528043267        3.6067678954
 H          1.1564756988       -6.7388791239        1.7055278093
 H         -0.4841206818       -6.0359542106       -0.3841074812
 H         -1.7586441247       -4.8247529358       -2.1229298682
 H         -1.6101363439       -2.3847815754       -2.3076743165
 H         -0.1788253852       -1.0795533868       -0.7950921336
 H          1.2129472086       -1.0254053109        3.5006744002
  72
       -110.13108739
 C          1.6933462651        1.0499162305        3.0598762455
 C          2.3335720983        1.7467227474        2.0503565575
 C          2.5641281044        1.1448700437        0.8157376142
 C          3.2733336618        1.8670268982       -0.2552352976
 C          4.4675119125        2.5187395246        0.0382974174
 C          5.1951517289        3.1510228162       -0.9523002045
 C          4.7386347287        3.1350543945       -2.2595596020
 C          3.5504663638        2.4970658152       -2.5637971817
 C          2.8032669162        1.8687521649       -1.5739845681
 C          1.5118636311        1.2506031466       -1.9325791984
 C          1.4516939972        0.2562078662       -2.9041379028
 C          0.2388126389       -0.3216995626       -3.2334303980
 C         -0.9261263989        0.0963562204       -2.6178037997
 C         -0.8817512137        1.1167065025       -1.6709613233
 N         -2.0663655206        1.5722043765       -1.0771031821
 C         -3.2251369140        1.9106303628       -1.7492636801
 C         -3.4747733059        1.9610445786       -3.1133990397
 C         -4.7267610418        2.3743223441       -3.5263422214
 C         -5.7120518286        2.7385411339       -2.6112215725
 C         -5.4624788454        2.7140715163       -1.2539470318
 C         -4.2107569356        2.3035888942       -0.8147334812
 C         -3.6093033460        2.1907606754        0.4841245191
 C         -4.0708842504        2.4177698980        1.7739073703
 C         -3.2122637876        2.1982357627        2.8325407380
 C         -1.9113067609        1.7500811257        2.6168209339
 C         -1.4299240090        1.5155193631        1.3429081972
 C         -2.2832979571        1.7470681005        0.2748940070
 C          0.3395704379        1.6839844618       -1.3261274770
 C          2.1463194664       -0.1662199516        0.6162217311
 C          1.5052557339       -0.8663671789        1.6305021456
 N          1.1013368918       -2.1906506915        1.4107667174
 C          1.9101372014       -3.2078626499        0.9457080112
 C          3.2621253417       -3.1892556083        0.6343478773
 C          3.8439680092       -4.3709239200        0.2172485074
 C          3.1072329053       -5.5491694256        0.1171802135
 C          1.7664289539       -5.5780123189        0.4442306633
 C          1.1585382106       -4.4028159048        0.8656654161
 C         -0.1723197481       -4.0768198414        1.2956209631
 C         -1.3445571068       -4.8117387980        1.4155057794
 C         -2.4868474603       -4.1689726781        1.8487287049
 C         -2.4729077127       -2.8085655667        2.1491888009
 C         -1.3187673106       -2.0566849171        2.0417361925
 C         -0.1630962411       -2.7019335354        1.6258919265
 C          1.2782303502       -0.2542671441        2.8603598216
 H          1.5220968613        1.5265208886        4.0138983092
 H          2.6432164801        2.7687225378        2.2112193307
 H          4.8359132390        2.5067874329        1.0540510683
 H          6.1209009410        3.6497075966       -0.7061809361
 H          5.3053041751        3.6216298930       -3.0394710961
 H          3.1793835948        2.4955734796       -3.5787580140
 H          2.3615526863       -0.0759953799       -3.3825544202
 H          0.2007476037       -1.1096660355       -3.9710328833
 H         -1.8704705254       -0.3682909464       -2.8572587755
 H         -2.7127947099        1.7003384269       -3.8323983678
 H         -4.9448909105        2.4206108405       -4.5832075332
 H         -6.6788362358        3.0541103294       -2.9742792186
 H         -6.2191046383        3.0137715581       -0.5444414507
 H         -5.0822863788        2.7566073504        1.9405392077
 H         -3.5507932466        2.3704377269        3.8434935819
 H         -1.2620079624        1.5797325263        3.4633361971
 H         -0.4246964270        1.1578105147        1.1868075656
 H          0.3749353740        2.4865063381       -0.6043400879
 H          2.3180176783       -0.6513474590       -0.3326307464
 H          3.8456787360       -2.2851581648        0.7248684642
 H          4.8948959028       -4.3822149058       -0.0324488377
 H          3.5989181678       -6.4521087729       -0.2131499353
 H          1.1989885728       -6.4943468316        0.3807958941
 H         -1.3578019101       -5.8629013026        1.1690284463
 H         -3.4084914939       -4.7225100611        1.9495094114
 H         -3.3847294144       -2.3270162379        2.4704047431
 H         -1.3273585401       -1.0006206482        2.2626125549
 H          0.7903768895       -0.8062981535        3.6492618940
  72
       -110.13072887
 C          1.5830948086        1.0319489723        3.0061296571
 C          2.2185824570        1.7258676701        1.9915917734
 C          2.4790257622        1.1066241302        0.7721248621
 C          3.2021284316        1.8172376141       -0.2975272929
 C          4.4066037883        2.4459445687        0.0032509050
 C          5.1569284174        3.0550211313       -0.9850263025
 C          4.7124304697        3.0378046581       -2.2964641761
 C          3.5127120399        2.4250756551       -2.6068034499
 C          2.7425465352        1.8200839345       -1.6192657615
 C          1.4353937402        1.2428228679       -1.9854058919
 C          1.3398763908        0.2922766435       -2.9974070320
 C          0.1065018264       -0.2193454485       -3.3585004487
 C         -1.0448868453        0.2226187292       -2.7339864305
 C         -0.9626227651        1.1917521140       -1.7376888749
 N         -2.1308692714        1.6719656472       -1.1295860136
 C         -3.2513190941        2.1335029275       -1.7919801987
 C         -3.4713583462        2.2910830431       -3.1529482623
 C         -4.6847127849        2.8163002009       -3.5540106770
 C         -5.6595648047        3.1851639111       -2.6295169176
 C         -5.4383378452        3.0508680883       -1.2736183620
 C         -4.2257406490        2.5266577617       -0.8457172617
 C         -3.6577188442        2.2815974277        0.4500695532
 C         -4.1262839069        2.4448019131        1.7470489124
 C         -3.3036994176        2.0894914489        2.7974273956
 C         -2.0320175885        1.5696231365        2.5669416852
 C         -1.5441604297        1.3959927732        1.2858162626
 C         -2.3609094708        1.7641042767        0.2276347424
 C          0.2783094695        1.6900996672       -1.3595484761
 C          2.0955193497       -0.2172657806        0.5898502067
 C          1.4752478379       -0.9199127110        1.6155937626
 N          1.1389291022       -2.2680313757        1.4306666103
 C          2.0094044528       -3.2555925038        1.0137949681
 C          3.3564729609       -3.1688393982        0.6927512555
 C          4.0099155343       -4.3317254669        0.3326592219
 C          3.3484039035       -5.5573114117        0.2976342118
 C          2.0134363248       -5.6530041875        0.6358373479
 C          1.3346202499       -4.4979251080        1.0010724843
 C         -0.0116271381       -4.2351398757        1.4260490070
 C         -1.1328071512       -5.0365477160        1.5966730010
 C         -2.3104174523       -4.4467949236        2.0103761715
 C         -2.3820885731       -3.0744092601        2.2395651582
 C         -1.2801859201       -2.2563412332        2.0793173158
 C         -0.0881828964       -2.8472642336        1.6856840273
 C          1.2157982917       -0.2897223663        2.8300159175
 H          1.3838681560        1.5226465336        3.9473777913
 H          2.5021421190        2.7578142523        2.1361998844
 H          4.7637530892        2.4340359703        1.0230675321
 H          6.0907266050        3.5357805599       -0.7340066079
 H          5.2971130053        3.5050132875       -3.0749008161
 H          3.1502091752        2.4266959709       -3.6248415851
 H          2.2377571473       -0.0555437317       -3.4871119113
 H          0.0409196607       -0.9709008409       -4.1313135760
 H         -2.0078958158       -0.1826311667       -3.0052379894
 H         -2.7154052714        2.0250425577       -3.8764641397
 H         -4.8799567681        2.9484605671       -4.6080475998
 H         -6.5956328823        3.5908990405       -2.9835137422
 H         -6.1867833424        3.3523706998       -0.5562494558
 H         -5.1155398347        2.8386774372        1.9253771815
 H         -3.6486811842        2.2093587807        3.8138068674
 H         -1.4124359093        1.2945297725        3.4081133941
 H         -0.5625217680        0.9831050179        1.1139529109
 H          0.3398252670        2.4545548797       -0.5990931176
 H          2.2859003341       -0.7107195782       -0.3514689500
 H          3.8833980938       -2.2271642656        0.7340285602
 H          5.0586209880       -4.2898986615        0.0772725505
 H          3.8946357962       -6.4434546866        0.0102779676
 H          1.5044275707       -6.6050737457        0.6236385483
 H         -1.0799840250       -6.0977264736        1.4047931605
 H         -3.1933556122       -5.0524521140        2.1511795961
 H         -3.3206274709       -2.6368589020        2.5465264264
 H         -1.3554751382       -1.1926392713        2.2438958886
 H          0.7428998753       -0.8431705394        3.6271651326
