  94
       -148.31400963
 C          6.8543036957        1.3419076044        1.7447967516
 C          6.7591577638        0.5155733565        0.4492709295
 C          8.0497670123        0.6640633166       -0.3772255001
 C          6.5889953939       -0.9452012600        0.8152722901
 C          7.5928226003       -1.5960958619        1.5208934737
 C          7.5102123261       -2.9366637041        1.8461509354
 C          6.4071304836       -3.6645311434        1.4372734786
 C          5.3929439492       -3.0401809153        0.7426623347
 C          5.4542025719       -1.6741490913        0.4514758233
 N          4.4035925326       -1.0754385274       -0.2360068982
 C          3.1933599596       -1.7850230454       -0.3852818779
 C          2.4542010359       -2.1354880914        0.7451788344
 C          1.2043420263       -2.7053940933        0.6017255888
 C          0.7027242746       -2.9294562846       -0.6682115582
 S         -1.0423978926       -3.2967569164       -0.8350165958
 O         -1.4651289114       -4.2063000166        0.1946244777
 O         -1.3363653678       -3.6378754018       -2.2009159773
 C         -1.7815726044       -1.6841896779       -0.4808805104
 C         -3.1195138495       -1.6528268921       -0.1538584763
 C         -3.7321546056       -0.4257331599        0.1088810982
 N         -5.0940951889       -0.3731692420        0.3935813108
 C         -5.6939003316        0.3342478318        1.4224054684
 C         -5.1190901587        1.0884697523        2.4344825091
 C         -5.9604511626        1.6708172392        3.3643215445
 C         -7.3411473412        1.5030765870        3.3025404256
 C         -7.9168260027        0.7280096648        2.3155547266
 C         -7.0914952357        0.1335782078        1.3708476537
 C         -7.3421528502       -0.7343819544        0.2530913359
 C         -8.5017592904       -1.2606015557       -0.3006838330
 C         -8.3940563341       -2.0632066457       -1.4188188028
 C         -7.1529237173       -2.3271151181       -1.9927790265
 C         -5.9853034392       -1.8136602530       -1.4596007937
 C         -6.0856892595       -1.0304482477       -0.3192567002
 C         -2.9699527978        0.7409882838        0.0908369213
 C         -1.6140183241        0.6899603662       -0.2159074551
 N         -0.8291890558        1.8444382217       -0.2041400768
 C          0.4089804639        1.9608794143        0.4068983129
 C          1.1057207719        1.0434788300        1.1788125122
 C          2.3228098111        1.4343600065        1.7049742113
 C          2.8343770675        2.7100907386        1.4878786778
 C          2.1330625551        3.6356652802        0.7423008159
 C          0.9106008323        3.2648098443        0.1989700151
 C         -0.0707763752        3.9606688068       -0.5868936790
 C         -0.1304210966        5.2424021749       -1.1174385471
 C         -1.2356771339        5.5981441177       -1.8644969457
 C         -2.2640339695        4.6886000861       -2.0983019713
 C         -2.2258472185        3.4065916429       -1.5824815787
 C         -1.1299539681        3.0522787454       -0.8100184255
 C         -1.0246320495       -0.5332011867       -0.5364971891
 C          1.4529751251       -2.6574502532       -1.7965794232
 C          2.7103103827       -2.0983692608       -1.6553551726
 C          4.4695603242        0.2516273777       -0.6590435383
 C          3.4024892643        0.8283891048       -1.3536506759
 C          3.4535183635        2.1342209812       -1.7915575844
 C          4.5719511611        2.9032906091       -1.5306705173
 C          5.6146293295        2.3495267074       -0.8142344606
 C          5.5904347145        1.0348418711       -0.3663844261
 H          6.9917476095        2.3966861599        1.5228425204
 H          7.6896412949        1.0093458657        2.3550682923
 H          5.9394125179        1.2282590567        2.3235747105
 H          8.2231819337        1.7015812336       -0.6476283401
 H          8.9126667810        0.3125590299        0.1809765671
 H          7.9712019979        0.0792143423       -1.2917660160
 H          8.4679022498       -1.0443648213        1.8289073118
 H          8.3063238656       -3.4104394644        2.3995335256
 H          6.3346634513       -4.7195316286        1.6542567495
 H          4.5440994391       -3.6190172295        0.4119288265
 H          2.8557299804       -1.9271966507        1.7253263778
 H          0.5937912345       -2.9558766587        1.4553508105
 H         -3.6665432852       -2.5787635015       -0.0837748143
 H         -4.0490863474        1.2077470794        2.5117138978
 H         -5.5351573717        2.2662961040        4.1585252045
 H         -7.9647682381        1.9772293774        4.0454692165
 H         -8.9851963773        0.5795435621        2.2776517772
 H         -9.4642336524       -1.0401406600        0.1353775988
 H         -9.2822179401       -2.4861684506       -1.8637261153
 H         -7.0994698219       -2.9447893582       -2.8766545635
 H         -5.0331290180       -2.0136803641       -1.9266999693
 H         -3.4339882502        1.6887219325        0.3152264417
 H          0.7093444147        0.0587058992        1.3754898597
 H          2.8857235331        0.7354801260        2.3059749893
 H          3.7899600457        2.9767800731        1.9125326927
 H          2.5207764846        4.6304590418        0.5862905793
 H          0.6757984628        5.9401814577       -0.9498322224
 H         -1.3038963663        6.5908044346       -2.2835109620
 H         -3.1089721298        4.9891202171       -2.6997080689
 H         -3.0190786843        2.7047729378       -1.7902403486
 H          0.0114404192       -0.5626936914       -0.8297473034
 H          1.0291817973       -2.8706527641       -2.7654007964
 H          3.3112443828       -1.8688227158       -2.5223847689
 H          2.5110544128        0.2543496391       -1.5483469080
 H          2.6143065751        2.5489607504       -2.3293131596
 H          4.6270878097        3.9263572020       -1.8690465272
 H          6.4723238096        2.9668059781       -0.5943026033
