94
 energy: -148.211572978760 gnorm: 0.000060111042 xtb: 6.7.1 (edcfbbe)
C            6.70329763647412        1.34343131496604        1.85940026252797
C            6.65644729857435        0.52439145569945        0.55513768225240
C            7.97542549694734        0.68834225740668       -0.22448833899873
C            6.48415678306498       -0.93666563531702        0.90455078459180
C            7.45836634649806       -1.59028601705920        1.64406045836966
C            7.36179468314077       -2.93579090171519        1.95549658179935
C            6.27295396251210       -3.66626031525945        1.49947254390898
C            5.28512125911455       -3.04291793917547        0.77487402963903
C            5.35839402948585       -1.66825045081005        0.48974798743415
N            4.33058198599430       -1.06883095989362       -0.20722727684735
C            3.13726453012032       -1.79811906002015       -0.42936919362927
C            2.33391357789486       -2.17439773939791        0.66788271447573
C            1.11139560909252       -2.75272114073086        0.45463259409870
C            0.67062259329062       -2.99023548593642       -0.85634098075072
S           -1.04472727444884       -3.27518994332629       -1.14599382133296
O           -1.59964304668111       -4.18980892012385       -0.17862967105728
O           -1.25057463921293       -3.57334750003791       -2.54225942371102
C           -1.77970908460694       -1.66342706591794       -0.79388353306615
C           -3.09038225672739       -1.63046159609287       -0.34730389049242
C           -3.66786243881914       -0.41495593135281        0.00789129041664
N           -5.00555487294171       -0.37001202357624        0.40513186737877
C           -5.50436294553990        0.26494154091957        1.52548979923482
C           -4.83383950922320        0.95728170288062        2.52283305579605
C           -5.58309004362475        1.48267271022089        3.56223799259365
C           -6.96497303545414        1.31691295391718        3.61505496404166
C           -7.63692444251329        0.60505716133859        2.63793438532420
C           -6.90685538193137        0.06692941108969        1.58664789910151
C           -7.25782263820960       -0.72887272820467        0.44515906853114
C           -8.45885626580695       -1.23035746601774       -0.03875716454869
C           -8.44511886750897       -1.96107892303125       -1.21332781205475
C           -7.25966218280997       -2.18131945717509       -1.91084228607309
C           -6.04947756106279       -1.69270862283500       -1.44802976620707
C           -6.05319274254834       -0.98190998991569       -0.25669356979425
C           -2.90366716989517        0.75774113640471       -0.02224368967422
C           -1.56613602667452        0.69952643800376       -0.42150305485186
N           -0.77468863489151        1.85440788979154       -0.39911504039802
C            0.44194692318593        1.96956673741772        0.24720737914828
C            1.13191042275023        1.03213069240540        0.99642931469673
C            2.32564899361505        1.42684279272067        1.58606482181217
C            2.81071050908266        2.72220362946543        1.44161508233168
C            2.12057780759562        3.66506907871875        0.70287009377265
C            0.92100711654713        3.29566798704079        0.10245818177017
C           -0.05251010046765        3.99927370967733       -0.67622840734604
C           -0.13986230029795        5.30191816075670       -1.15722822355253
C           -1.24186932445484        5.65610367575210       -1.91165366412859
C           -2.24724912660908        4.73459536338689       -2.19959474905577
C           -2.18521999963830        3.43231672290722       -1.73084184268069
C           -1.09072000023902        3.07480991561520       -0.95946918107653
C           -1.01137254922534       -0.50739401802836       -0.83380479978362
C            1.49672680840389       -2.68380166521029       -1.94860314311916
C            2.72061374156426       -2.10646336991469       -1.74063492072401
C            4.40532581314183        0.24694858685281       -0.62177321655749
C            3.34987466249862        0.81510430423579       -1.35354246005470
C            3.40534258026211        2.11885105605728       -1.78725724842675
C            4.50826008843637        2.90041870457565       -1.47999190872947
C            5.53735746931185        2.35931135828047       -0.73235217084621
C            5.51599323672872        1.04220061256594       -0.29389787618228
H            6.84358949828016        2.39949315829228        1.64711446898856
H            7.51921134742265        1.01010853021053        2.49450997710060
H            5.77003131028190        1.22247490485594        2.40573299571220
H            8.14642696392824        1.72885898707214       -0.48363470479112
H            8.81972492534118        0.34333638006573        0.36484551132532
H            7.93667599965413        0.10668089374988       -1.14332502165679
H            8.32220756339608       -1.04280769503118        1.98851231334799
H            8.13654184437440       -3.41294049154537        2.53508108259812
H            6.19912202087091       -4.72232413628466        1.70826554521174
H            4.44688594132808       -3.61185250142808        0.40572181592969
H            2.68478469626579       -1.96707769490886        1.66816831961793
H            0.45949236518044       -3.02316419643274        1.27040248109767
H           -3.63495448651389       -2.55684085768122       -0.26426453292590
H           -3.76081826029583        1.07039310413826        2.50408339786728
H           -5.08413684346510        2.02726107336360        4.34954418120660
H           -7.51589081323799        1.74330965552406        4.44005944307841
H           -8.70555824211699        0.46364160814668        2.69078696532286
H           -9.38135364014020       -1.04890941440261        0.49134727146685
H           -9.36873255131260       -2.36165858996377       -1.60373290301625
H           -7.28325099117419       -2.74250781984700       -2.83234944421642
H           -5.13832716558801       -1.85719858225365       -2.00203684495292
H           -3.34258309880713        1.70050708356429        0.26230966796274
H            0.75320362729661        0.03001646816593        1.12761392788185
H            2.87893816872379        0.71503238736670        2.18069102700909
H            3.74003829555875        2.99556743089038        1.91885173707205
H            2.49436148534955        4.67241162605440        0.60270567201358
H            0.64104177032957        6.01609038846658       -0.94460031168890
H           -1.32700876587806        6.66290918347343       -2.29300461801897
H           -3.08927358265633        5.03997040775298       -2.80193479851990
H           -2.95842047877883        2.71828867728700       -1.96997708907677
H            0.00448322633501       -0.54111790526476       -1.19249578942939
H            1.13150752984682       -2.91031651744321       -2.93733872113199
H            3.37607477559972       -1.87481240350399       -2.56747850187065
H            2.47948046340014        0.22286160006734       -1.57758651107373
H            2.58519471254667        2.53011567738652       -2.35484084185872
H            4.56047739830727        3.92601777944556       -1.81038526137282
H            6.37754336963766        2.98836209343071       -0.48165059690274
