94
 energy: -148.215686423811 gnorm: 0.000037293222 xtb: 6.7.1 (edcfbbe)
C            5.07300501775687        0.47740711962963       -2.80327088710030
C            4.94131149607774       -0.54802803993572       -1.66061286706926
C            5.92242097063747       -1.71607254222584       -1.87779717919505
C            5.28515150314495        0.13751656784154       -0.35633352022399
C            6.55534638272370        0.66392993497959       -0.16814123948029
C            6.92413856719491        1.27913462924277        1.01435664800982
C            6.01049269498975        1.36442695343860        2.05441478712001
C            4.74132129439436        0.85885989524429        1.89396328844074
C            4.35310112568818        0.25898698346681        0.68608417991517
N            3.06795924736950       -0.22259624265397        0.55545752022981
C            2.12251995907394        0.04298740675959        1.58144736586864
C            1.64112659282493        1.34993043963338        1.75917437661000
C            0.65643933336859        1.59714771626714        2.67820879027671
C            0.12250352999556        0.54177141147646        3.44272418262283
S           -1.54668774885798        0.69833086781547        4.00424515661394
O           -1.81429514559813        2.03413308539530        4.47295997724818
O           -1.90343892297521       -0.41223663726778        4.85036557824744
C           -2.23381389721708        0.48496655584863        2.37741927673937
C           -2.10881600906249        1.58174029016973        1.51002597099291
C           -2.05424480872768        1.37550124311922        0.14532067830803
N           -1.83545221885111        2.46646944655263       -0.70796584543032
C           -0.80516281653813        2.57066151505460       -1.61616403210632
C            0.19486530724156        1.65839738297098       -1.92010286446848
C            1.13351820477004        2.02092066734306       -2.86813442566287
C            1.08752909716345        3.26412357564071       -3.49438760392700
C            0.10435230706812        4.18612991706340       -3.18031398389271
C           -0.84884023494677        3.84531069163972       -2.23215804784817
C           -1.96666476414330        4.53786979988340       -1.64975413313752
C           -2.52298801436329        5.79358466951566       -1.84317193210493
C           -3.63558788477810        6.14547885815190       -1.09981690389768
C           -4.19887131189152        5.26064903021172       -0.18278559556378
C           -3.66453228815399        4.00278298580365        0.02649217795947
C           -2.53731281347856        3.65146710014821       -0.70389869760243
C           -2.14423647870054        0.08344794714785       -0.38667168250409
C           -2.31221670701496       -1.00567788179578        0.48798181256464
N           -2.45316482641506       -2.29212977617513       -0.05149695558612
C           -1.74255458491294       -3.41236096499973        0.32725346920976
C           -0.75557746452401       -3.54746268265367        1.29380718194999
C           -0.16686162445614       -4.78879196745797        1.44491844079803
C           -0.54262489564701       -5.87307073230531        0.65590383336461
C           -1.51574319515283       -5.74166863836649       -0.31804786312473
C           -2.12008541093458       -4.50528250203163       -0.48942753932793
C           -3.12486549762748       -4.01115803254215       -1.39159150126388
C           -3.87904840563431       -4.59878273641318       -2.39605031504581
C           -4.80132878120980       -3.82061613553990       -3.07198922807129
C           -4.98322969360697       -2.47848651831241       -2.74715020997776
C           -4.24226542080707       -1.87037989195599       -1.75108220470385
C           -3.29884120945372       -2.64037691255850       -1.08375970575660
C           -2.34538004843434       -0.81109853857502        1.85582273124333
C            0.65312532326086       -0.75093951767204        3.30892228146764
C            1.64865913329252       -0.99831093344306        2.40032469013558
C            2.65857667012255       -0.90465187818638       -0.57227207989134
C            1.34593581283623       -1.39766818967709       -0.65006272454659
C            0.91333529545605       -2.08957331900826       -1.75873299139900
C            1.77368998400760       -2.28830669633893       -2.82673447254593
C            3.05987700305424       -1.78324747681302       -2.76717507648358
C            3.52920569018070       -1.09354838142639       -1.65760508457285
H            4.40701622965173        1.31965768246498       -2.62444423263818
H            4.81468338331712        0.02841071861678       -3.75835142651002
H            6.09017148197380        0.85342907935158       -2.86664020397736
H            5.72554903294517       -2.21783278967200       -2.82056618206377
H            6.94927733242495       -1.36308489437130       -1.89040817710433
H            5.81804306220443       -2.44147600551394       -1.07338900824751
H            7.28303927941299        0.59479317449036       -0.96202176382950
H            7.91985937797955        1.67905867927046        1.12712217954366
H            6.29028162249205        1.82244642049179        2.99046417478544
H            4.03283417037835        0.91268030915098        2.70501178591330
H            2.04143092873464        2.14386511609911        1.14460754853946
H            0.26742441327688        2.59009403340102        2.83178954482460
H           -2.01251461099257        2.56761012210567        1.93324766458506
H            0.24733768823284        0.70108400790248       -1.42669847155541
H            1.91467036809209        1.32062736287679       -3.12537818989064
H            1.83667453816653        3.51268358698531       -4.23146899959454
H            0.08035665298982        5.15347075130832       -3.65861037581247
H           -2.09638956939370        6.47820452291872       -2.56049506157567
H           -4.08110518648332        7.11970549874212       -1.23423623452698
H           -5.07219138108560        5.56295767780181        0.37492331920494
H           -4.10708755464399        3.31651570054778        0.73166301095893
H           -2.08596882745140       -0.07474261506349       -1.45078824916107
H           -0.45676277384155       -2.71168126968778        1.90571143565673
H            0.60021794469224       -4.92086526692137        2.19318613147732
H           -0.06248188763811       -6.82828443807019        0.80674763518693
H           -1.79958408228946       -6.58041602603677       -0.93539117696428
H           -3.75095016385070       -5.64291435348094       -2.63793329666691
H           -5.39898913923613       -4.25953264428905       -3.85671947367526
H           -5.72335419775657       -1.90148832911235       -3.28101894029481
H           -4.40341198849472       -0.83595453736373       -1.49006129978021
H           -2.48362924350490       -1.63281864239050        2.53968032827088
H            0.25378830060421       -1.52815275548646        3.94206772420005
H            2.07867029281706       -1.98419041837174        2.29357400619663
H            0.66702883968359       -1.22788731194731        0.16971442860693
H           -0.09600666985796       -2.46914245823416       -1.79474633170108
H            1.44286533855730       -2.82475845572068       -3.70232254158996
H            3.71103810272100       -1.93177273501729       -3.61492137482808
