  90
  -133.956187270000       0.283639963544287      !
 C          6.7286063822        3.2752382084       -0.7316873090
 C          5.9453768338        2.5447295715        0.3761987950
 C          6.2549457900        3.1739747592        1.7486610788
 C          4.4679293648        2.6918776962        0.0917626997
 C          3.9019409774        3.9546999483        0.0300718098
 C          2.5626836070        4.1478130887       -0.2692760510
 C          1.7639356287        3.0461201201       -0.5569472130
 C          2.2956468350        1.7815524456       -0.5079991405
 C          3.6418284656        1.5737323992       -0.1445394762
 N          4.1331585503        0.2909144286       -0.0413955440
 C          3.2372632424       -0.7911061501       -0.2028858272
 C          3.3647852665       -1.6811160856       -1.2879036484
 C          2.4297324468       -2.6689959265       -1.4424479369
 C          1.3781051942       -2.8154025413       -0.5324665059
 C          1.2272037156       -1.9199931517        0.5546705996
 C          2.1688788597       -0.9272962145        0.6947413882
 C          0.0131065431       -2.0259026917        1.4572182730
 C          0.0172865902       -3.3657672671        2.2117214638
 C         -0.0106333239       -0.9182348480        2.5156667329
 C         -1.1855236074       -1.9456899557        0.5316020511
 C         -2.1459389525       -0.9610117098        0.6372594278
 C         -3.2115212370       -0.8831258808       -0.2609592513
 N         -4.1388218732        0.1898952630       -0.1387283337
 C         -3.8000440212        1.4131703331       -0.6698044049
 C         -2.5750825021        1.5580662104       -1.3399035616
 C         -2.2083041529        2.7672289130       -1.8832941720
 C         -3.0525065389        3.8623729711       -1.7676215322
 C         -4.2640435153        3.7219234246       -1.1146046904
 C         -4.6653169623        2.5145824673       -0.5613641726
 C         -6.0106563046        2.4106503894        0.1252261293
 C         -6.0453328790        3.4081034108        1.2989519904
 C         -7.1110913438        2.7533299988       -0.8970101837
 C         -6.2662235880        1.0189569591        0.6640340651
 C         -7.4494116769        0.7416629635        1.3329613954
 C         -7.7216631962       -0.5127359054        1.8492834905
 C         -6.7893732781       -1.5305491088        1.7045873749
 C         -5.6069878159       -1.2861589472        1.0461495398
 C         -5.3309068735       -0.0179906533        0.5130750735
 C         -3.3333921789       -1.8102054907       -1.3059125809
 C         -2.3690483282       -2.7769466391       -1.4400017945
 C         -1.3107519920       -2.8623103595       -0.5358873773
 S          0.0558682407       -3.9055092878       -0.9713138216
 O          0.0761129684       -5.1525358903       -0.2168942618
 O          0.0590686274       -4.0904739152       -2.4092672007
 C          5.4577011438        0.0416666535        0.2368922499
 C          5.8980681443       -1.2866345909        0.3860765972
 C          7.2197693992       -1.5687530304        0.6314449062
 C          8.1388442425       -0.5326449720        0.7529544358
 C          7.7030670659        0.7782975359        0.6566443357
 C          6.3765286501        1.0959018873        0.4098643427
 H          6.5111888097        2.8236223215       -1.6976413534
 H          6.4518405955        4.3246823243       -0.7734913964
 H          7.7984095182        3.2119076112       -0.5554236264
 H          7.3142810419        3.1035016707        1.9766402518
 H          5.7006824283        2.6541900854        2.5276801020
 H          5.9715857929        4.2221986903        1.7666503929
 H          4.5157381174        4.8222592134        0.2175263963
 H          2.1519055068        5.1444198959       -0.2979100937
 H          0.7260926688        3.1805021929       -0.8221571844
 H          1.6821682380        0.9332546057       -0.7589953964
 H          4.1728431119       -1.5543762598       -1.9918847268
 H          2.4617508467       -3.3489123033       -2.2779796702
 H          2.1171835575       -0.2172524550        1.5025923365
 H          0.8968710484       -3.4232374491        2.8490995309
 H          0.0302334186       -4.2020583199        1.5258927353
 H         -0.8707152298       -3.4378374381        2.8358531757
 H         -0.0054674948        0.0719884670        2.0677116787
 H          0.8551601315       -1.0164498599        3.1659758518
 H         -0.8996898909       -1.0233082569        3.1327292648
 H         -2.1014881772       -0.2146555947        1.4124403110
 H         -1.9250477975        0.7039162706       -1.4332357019
 H         -1.2671140185        2.8557474092       -2.4048909212
 H         -2.7728559954        4.8155081450       -2.1885223295
 H         -4.9122985396        4.5818290179       -1.0420609586
 H         -5.8805649572        4.4232865102        0.9496365464
 H         -7.0046287218        3.3752023238        1.8070191268
 H         -5.2667117461        3.1611747664        2.0182498350
 H         -6.9733871425        3.7552765287       -1.2934581037
 H         -7.0791616227        2.0484088613       -1.7256552952
 H         -8.0945393214        2.7001911652       -0.4387730881
 H         -8.1847055361        1.5217171928        1.4593230501
 H         -8.6523240813       -0.6938198402        2.3638123179
 H         -6.9851757287       -2.5119174339        2.1079492396
 H         -4.8743810618       -2.0689024543        0.9328485139
 H         -4.1618841919       -1.7389947938       -1.9937074154
 H         -2.3899859985       -3.4845951953       -2.2525577518
 H          5.1811428528       -2.0873514801        0.3138730662
 H          7.5380743283       -2.5944543855        0.7355379561
 H          9.1796998946       -0.7439035547        0.9403384242
 H          8.4244441750        1.5706757551        0.7850684161
  90
  -133.956117390000       0.263422457148688      !
 C          7.2172128139        2.9707548918       -0.6125833236
 C          6.2898772295        2.3771084755        0.4658665163
 C          6.5637514068        3.0447327216        1.8278323836
 C          4.8578230322        2.6498341378        0.0650213234
 C          4.4236279311        3.9555551578       -0.0952277435
 C          3.1350314546        4.2578549871       -0.5051716265
 C          2.2515961466        3.2231748566       -0.7967640192
 C          2.6504240485        1.9183825888       -0.6463767085
 C          3.9440867696        1.6046816391       -0.1847945026
 N          4.3031006910        0.2885966402       -0.0042690458
 C          3.3314033042       -0.7192695294       -0.2195074870
 C          3.4549840538       -1.6119188294       -1.3006062799
 C          2.4754051017       -2.5488494982       -1.4947265480
 C          1.3892262521       -2.6431140949       -0.6206217261
 C          1.2399872423       -1.7424673289        0.4601978750
 C          2.2215841761       -0.7928674827        0.6330854903
 C          0.0097155392       -1.8210701105        1.3442887436
 C          0.0055888380       -3.1521467829        2.1173516630
 C         -0.0140793441       -0.6981345159        2.3865461076
 C         -1.1958367080       -1.7605701818        0.4253477660
 C         -2.1977780328       -0.8220737238        0.5656674429
 C         -3.2850334333       -0.7820871393       -0.3097866329
 N         -4.2910133716        0.2098765809       -0.1295339518
 C         -4.1360629856        1.4291578851       -0.7458589740
 C         -2.9732908234        1.6798370598       -1.4912709878
 C         -2.7890215217        2.8868878324       -2.1238900507
 C         -3.7629355370        3.8715833212       -2.0309741291
 C         -4.9104862174        3.6287510208       -1.2970765655
 C         -5.1228696763        2.4243706409       -0.6423711318
 C         -6.3961585268        2.2081238876        0.1473875873
 C         -6.4937955662        3.2952084521        1.2347061594
 C         -7.5949918387        2.3096959486       -0.8152555431
 C         -6.4278204090        0.8479447693        0.8115695314
 C         -7.5091547541        0.4872738686        1.6018549591
 C         -7.5827671912       -0.7469374770        2.2232018693
 C         -6.5515466561       -1.6611044594        2.0559473821
 C         -5.4683246909       -1.3346002096        1.2743610290
 C         -5.3893028370       -0.0835751251        0.6429437947
 C         -3.3776086660       -1.6875126085       -1.3759757178
 C         -2.3755998887       -2.6097772790       -1.5418227319
 C         -1.3061057214       -2.6691723739       -0.6491587951
 S          0.0587974000       -3.7158420154       -1.0728370751
 O          0.0618345840       -4.9595650960       -0.3124555668
 O          0.0744551843       -3.9048625621       -2.5099880640
 C          5.5713379888       -0.0723086028        0.3860285657
 C          5.8689575967       -1.4301009930        0.6097221360
 C          7.1335954651       -1.8246089457        0.9707598283
 C          8.1366670959       -0.8747892120        1.1338030540
 C          7.8392868643        0.4666067055        0.9577210940
 C          6.5732432603        0.8974891202        0.5948228358
 H          7.0185300663        2.4980842011       -1.5725525316
 H          7.0549520345        4.0397287745       -0.7162749870
 H          8.2603337253        2.8071236861       -0.3581827124
 H          7.5926633340        2.8851827925        2.1368216939
 H          5.9075894719        2.6219687305        2.5863737414
 H          6.3854314216        4.1149352148        1.7768548742
 H          5.1050770792        4.7700916509        0.0974006909
 H          2.8290989585        5.2861473796       -0.6148195537
 H          1.2540653616        3.4413936100       -1.1468384664
 H          1.9740668276        1.1173583580       -0.8933047814
 H          4.3004541971       -1.5319465798       -1.9664606679
 H          2.5045996736       -3.2322369559       -2.3274682460
 H          2.1737617253       -0.0759240073        1.4351995368
 H          0.8800269678       -3.2037645072        2.7629783124
 H          0.0221735996       -3.9964791379        1.4403169985
 H         -0.8881625728       -3.2153064211        2.7349809216
 H         -0.0094811865        0.2845455480        1.9213804302
 H          0.8509941854       -0.7857461819        3.0391151937
 H         -0.9016946125       -0.7935048633        3.0070416679
 H         -2.1746589650       -0.0887356416        1.3542364310
 H         -2.2245505898        0.9080602841       -1.5651796747
 H         -1.8892627525        3.0608637783       -2.6941907602
 H         -3.6307228359        4.8197990816       -2.5280667373
 H         -5.6584301313        4.4048102039       -1.2393310087
 H         -6.5033291058        4.2866093652        0.7914668771
 H         -7.4006731600        3.1776945110        1.8207511301
 H         -5.6395884130        3.2265121780        1.9057804234
 H         -8.5317398033        2.1825499676       -0.2797970942
 H         -7.6120928744        3.2763520326       -1.3106667866
 H         -7.5261176109        1.5344926618       -1.5762088031
 H         -8.3227930538        1.1829505629        1.7402946819
 H         -8.4383435350       -0.9943386770        2.8318575930
 H         -6.5954495272       -2.6272167929        2.5345425258
 H         -4.6643017195       -2.0392643302        1.1357967710
 H         -4.2202231921       -1.6409673215       -2.0485612424
 H         -2.3798628838       -3.3073671745       -2.3632853458
 H          5.0861025171       -2.1620413088        0.5003108669
 H          7.3428163607       -2.8706759511        1.1324082098
 H          9.1343415177       -1.1754231198        1.4119271260
 H          8.6233032415        1.1915227219        1.1151277192
  90
  -133.955997500000       0.232035891594222      !
 C          7.8876714480        2.2455454349       -0.3705288167
 C          6.5032049964        2.2813343158        0.3053753309
 C          6.4181090070        3.4735090988        1.2785261563
 C          5.4451447346        2.4544425970       -0.7618246433
 C          5.4546228454        3.5821858708       -1.5679084409
 C          4.4933259348        3.7970063757       -2.5411436039
 C          3.4749129452        2.8670413507       -2.7137980083
 C          3.4393874392        1.7374636790       -1.9322847505
 C          4.4267947438        1.5023049956       -0.9591845979
 N          4.3702733887        0.3554838727       -0.2032100283
 C          3.3387764681       -0.5888266284       -0.4558476838
 C          3.4025154172       -1.4202142295       -1.5858244594
 C          2.4049007559       -2.3396813129       -1.7813777642
 C          1.3621092317       -2.4682737589       -0.8627894142
 C          1.2644208410       -1.6172917083        0.2601415249
 C          2.2652880252       -0.6856821894        0.4361599149
 C          0.0828585066       -1.7441363118        1.2036042892
 C          0.1573915492       -3.0989018267        1.9326422967
 C          0.0964273845       -0.6545286279        2.2807087233
 C         -1.1809676750       -1.6912572950        0.3660664168
 C         -2.2047928478       -0.8010098788        0.6106684695
 C         -3.3573298629       -0.7771704187       -0.1823482889
 N         -4.3874447209        0.1577895156        0.1055355552
 C         -4.1930900672        1.4825254771       -0.2105588018
 C         -2.9769821169        1.8864408568       -0.7892028373
 C         -2.7488536334        3.2043905891       -1.1041388859
 C         -3.7327251245        4.1552253248       -0.8611266179
 C         -4.9417913549        3.7592051269       -0.3154291007
 C         -5.2013382727        2.4385244179        0.0174367187
 C         -6.5527499133        2.0562084444        0.5801568211
 C         -6.7979895403        2.8558414004        1.8743991207
 C         -7.6306160922        2.3965696542       -0.4674704795
 C         -6.6378184952        0.5801801336        0.9008923810
 C         -7.7984608565        0.0568891460        1.4490327300
 C         -7.9144726091       -1.2827389732        1.7801258109
 C         -6.8360342793       -2.1348138292        1.5736913634
 C         -5.6737342755       -1.6476414811        1.0267072600
 C         -5.5591972612       -0.2934112802        0.6655716840
 C         -3.4907920034       -1.6536399488       -1.2712903905
 C         -2.4676641011       -2.5241640634       -1.5427295848
 C         -1.3331344090       -2.5679302261       -0.7309201803
 S          0.0295711519       -3.5549453048       -1.2773130448
 O          0.1123579622       -4.8250719912       -0.5664314586
 O         -0.0365836993       -3.6895035787       -2.7191434456
 C          5.2821529883        0.0925423685        0.7920041656
 C          5.1890515768       -1.1095567334        1.5156521173
 C          6.0757992600       -1.3946906806        2.5256241038
 C          7.0850101237       -0.4913579234        2.8370579749
 C          7.1961098290        0.6827310911        2.1116919831
 C          6.3177382243        0.9994959680        1.0869716615
 H          7.9440126064        1.4012886796       -1.0549565202
 H          8.0658248529        3.1568051114       -0.9339850437
 H          8.6767737805        2.1411466549        0.3686460627
 H          7.1719516758        3.3926279527        2.0561566058
 H          5.4379428097        3.4969162667        1.7505461340
 H          6.5695247032        4.4125420175        0.7545495883
 H          6.2293582078        4.3221643300       -1.4384227965
 H          4.5325681474        4.6844897792       -3.1527132592
 H          2.7100139315        3.0280042549       -3.4578933869
 H          2.6472145043        1.0171833549       -2.0566127536
 H          4.2301422317       -1.3291416988       -2.2723026541
 H          2.3959747282       -2.9909963318       -2.6399611366
 H          2.2572383193       -0.0023711891        1.2687165562
 H          1.0688903896       -3.1473118495        2.5252460493
 H          0.1555525996       -3.9205015259        1.2276658269
 H         -0.6971539341       -3.2053400021        2.5978363139
 H          0.0543006819        0.3413867125        1.8463305598
 H          0.9985701098       -0.7425440329        2.8808770466
 H         -0.7516117562       -0.7878307906        2.9475592946
 H         -2.1547814675       -0.0961689916        1.4235776740
 H         -2.2228876815        1.1445404290       -0.9933396505
 H         -1.8072832591        3.4943245962       -1.5449226381
 H         -3.5635130314        5.1920593320       -1.1054460944
 H         -5.7017829075        4.5079389495       -0.1519092076
 H         -6.7620932816        3.9242796221        1.6825188997
 H         -7.7699829659        2.6198281477        2.2972895910
 H         -6.0341659070        2.6122360472        2.6103706186
 H         -7.6135572366        3.4553133173       -0.7099042742
 H         -7.4510365799        1.8318595864       -1.3803483410
 H         -8.6208561374        2.1459923132       -0.0978162940
 H         -8.6419771551        0.7059634817        1.6285931872
 H         -8.8331868904       -1.6568756185        2.2036139741
 H         -6.9055529136       -3.1773287867        1.8431289528
 H         -4.8312647922       -2.3017161099        0.8724921872
 H         -4.3809166226       -1.6194317542       -1.8804951719
 H         -2.5030028177       -3.1926991354       -2.3872277875
 H          4.4144714636       -1.8137043827        1.2609422031
 H          5.9874683756       -2.3223128673        3.0697618948
 H          7.7846886780       -0.7054758994        3.6295567345
 H          7.9969617360        1.3639385411        2.3557782508
  90
  -133.955951030000       0.220901687712803      !
 C          8.0214389601        2.0836279764        0.0769472961
 C          6.5959850721        2.1605184320        0.6575565715
 C          6.4923845954        3.3275879777        1.6588350175
 C          5.6223960475        2.4098394002       -0.4727903803
 C          5.7368192643        3.5564316594       -1.2429168392
 C          4.8503323620        3.8446419277       -2.2673093314
 C          3.7987256250        2.9730279748       -2.5271329593
 C          3.6603045619        1.8260463980       -1.7841466673
 C          4.5758442703        1.5125159838       -0.7629253605
 N          4.4218072740        0.3459917760       -0.0517018441
 C          3.3801451915       -0.5493386531       -0.4110167255
 C          3.4749309560       -1.3042640826       -1.5922279130
 C          2.4679185190       -2.1836714435       -1.8918729127
 C          1.3837089898       -2.3491319060       -1.0280003505
 C          1.2548895171       -1.5746065888        0.1460549233
 C          2.2658023605       -0.6806402754        0.4265110202
 C          0.0364902047       -1.7463238211        1.0345569878
 C          0.0746510456       -3.1470863027        1.6752316573
 C          0.0224050578       -0.7297691016        2.1809520539
 C         -1.2015121472       -1.6299179329        0.1647828728
 C         -2.2430666444       -0.7730205706        0.4538981825
 C         -3.3704095094       -0.6903551560       -0.3697697368
 N         -4.4328417304        0.1868258814       -0.0182536492
 C         -4.5648686244        1.3752663253       -0.6969823191
 C         -3.6092127514        1.7252748158       -1.6665444248
 C         -3.7196662509        2.8985730378       -2.3733445786
 C         -4.7842632917        3.7568945451       -2.1279660404
 C         -5.7162879086        3.4272673187       -1.1586553400
 C         -5.6308816010        2.2531766670       -0.4262893582
 C         -6.6623466893        1.9511862284        0.6387134024
 C         -6.6297449071        3.0800554450        1.6873257752
 C         -8.0518412188        1.8811244677       -0.0238085048
 C         -6.3933415862        0.6336922978        1.3327339420
 C         -7.2390688577        0.1998203462        2.3423626892
 C         -7.0488105660       -1.0085124137        2.9901885043
 C         -5.9890862533       -1.8255875524        2.6165978005
 C         -5.1336276212       -1.4240126259        1.6186887632
 C         -5.3109431642       -0.1895763309        0.9709531920
 C         -3.4559568186       -1.4598720643       -1.5405235394
 C         -2.4194393942       -2.3019101219       -1.8494131860
 C         -1.3156630813       -2.4142285877       -1.0032958798
 S          0.0538558171       -3.3814513772       -1.5661175634
 O          0.0915042690       -4.6978148702       -0.9405044243
 O          0.0409691836       -3.4166563297       -3.0152659088
 C          5.2556497312        0.0123513988        0.9902993179
 C          5.0724147622       -1.2104945942        1.6610798600
 C          5.8765126304       -1.5626750751        2.7176426806
 C          6.8933484638       -0.7089199901        3.1298459207
 C          7.0977654335        0.4822192178        2.4540365829
 C          6.3043259599        0.8663268133        1.3842654429
 H          8.0895028483        1.2578498602       -0.6286587302
 H          8.2772146112        3.0022271523       -0.4433392137
 H          8.7518733912        1.9228515667        0.8646089974
 H          7.1908020893        3.1958718585        2.4802072997
 H          5.4848181089        3.3766314307        2.0680530456
 H          6.7123113439        4.2743583695        1.1739261193
 H          6.5362940130        4.2535191588       -1.0437938672
 H          4.9713628148        4.7445394154       -2.8493726767
 H          3.0880733250        3.1942243400       -3.3085016702
 H          2.8407677831        1.1528381539       -1.9753186116
 H          4.3347473184       -1.1888752502       -2.2340903626
 H          2.4829236078       -2.7765337357       -2.7917440972
 H          2.2348798937       -0.0528473034        1.3012758297
 H          0.9669904074       -3.2452218853        2.2903497476
 H          0.0860321205       -3.9203896133        0.9173977115
 H         -0.8007931974       -3.2865275233        2.3064142010
 H         -0.0010249214        0.2923864780        1.8106746414
 H          0.9048549149       -0.8631429322        2.8015841448
 H         -0.8460671790       -0.8996107507        2.8123050381
 H         -2.2245889615       -0.1389130025        1.3243818811
 H         -2.7820096092        1.0587908435       -1.8484516439
 H         -2.9773162776        3.1485495550       -3.1155897509
 H         -4.8829787260        4.6775042084       -2.6812894109
 H         -6.5298226634        4.1120184285       -0.9732892064
 H         -6.8387992954        4.0417333358        1.2277337150
 H         -7.3678580138        2.9073318158        2.4651957204
 H         -5.6459857383        3.1270375895        2.1506511623
 H         -8.2894081564        2.8158759423       -0.5235650109
 H         -8.0700010612        1.0818852781       -0.7622872505
 H         -8.8234367434        1.6834965417        0.7147372437
 H         -8.0761990798        0.8146919608        2.6358829058
 H         -7.7257021003       -1.3146689766        3.7721757851
 H         -5.8365494110       -2.7769700209        3.1025277174
 H         -4.3185470030       -2.0602173795        1.3152822791
 H         -4.3277291043       -1.3804012498       -2.1716351792
 H         -2.4241309005       -2.9009040101       -2.7453185202
 H          4.2952762145       -1.8780186464        1.3280341421
 H          5.7189409110       -2.5047138666        3.2199216503
 H          7.5282534522       -0.9754445947        3.9599658535
 H          7.9054338079        1.1226620201        2.7742560615
