72
 energy: -112.517541033828 gnorm: 0.000048524348 xtb: 6.7.1 (edcfbbe)
C           -5.65362303863538        2.73287301015163        1.23287401379065
C           -4.94443474536277        1.65790080001069        1.76525218525310
C           -3.69348969235769        1.31163063487157        1.27373761738276
C           -3.17187901136125        2.06135529234764        0.23326326395046
C           -3.87198766307477        3.17990392457773       -0.29257338939571
C           -5.12809666403278        3.50495038133513        0.21237713327470
C           -3.03008424890926        3.75552815717307       -1.29591679847968
C           -3.16194939975718        4.84368415472918       -2.15419991094202
C           -2.14069483050878        5.11073990118772       -3.04865721966817
C           -1.00286787657630        4.30868752687996       -3.10794528443957
C           -0.84541506758044        3.22186578788373       -2.25839722210730
C           -1.85190654246762        2.96344458672824       -1.34239452897121
N           -1.95339405841111        1.94672494804057       -0.40988123256146
C           -0.98756206883660        0.96440177954650       -0.18163951189990
C           -1.34224792790976       -0.38169797899824       -0.16268954962094
C           -0.35391353753022       -1.36026664963496        0.00381554921328
N           -0.70399770855698       -2.70916875721033        0.00273589625956
C           -0.09653256165003       -3.70195741576277       -0.74547564656789
C            0.91999107251053       -3.60296576665930       -1.67922015257302
C            1.33654292409115       -4.76310912292621       -2.31918049102188
C            0.74252117144449       -5.99161429908030       -2.03498911546321
C           -0.29408862859033       -6.09604963920443       -1.12470588010000
C           -0.73338565654832       -4.94435884215675       -0.47567043955252
C           -1.76903027872844       -4.67679881493537        0.47176023559690
C           -2.71518050633071       -5.47070700083949        1.11608084772759
C           -3.56995491265886       -4.87785136696203        2.02816758599659
C           -3.48967075542215       -3.51682483407351        2.31818108460375
C           -2.55980587408647       -2.70430901101104        1.68243186774444
C           -1.71930046232067       -3.28268626069282        0.74750631671042
C            0.98651025923558       -0.98604377783001        0.17057781504951
C            1.33021726709940        0.36274535139516        0.19089500709094
N            2.65313406506897        0.75077619674686        0.41579404121456
C            3.76948035543679        0.26488779466924       -0.23890665774620
C            3.85344115146916       -0.63393265522288       -1.28856318272841
C            5.11122862860816       -0.93280227267894       -1.79339776159583
C            6.25679953850009       -0.34077960095979       -1.26532470724112
C            6.18005967935160        0.57834995331427       -0.23420935480976
C            4.92813237611850        0.89789954652081        0.28446680887630
C            4.47820072819616        1.80138337486082        1.29876513493213
C            5.12760286350463        2.68044777218559        2.16093701159341
C            4.37016574562237        3.40394638933588        3.06490657362949
C            2.98614343709170        3.25702972677998        3.13004252786573
C            2.31509450033884        2.39076691757864        2.27749506320379
C            3.06401409261922        1.68146017438949        1.35279969326742
C            0.34832307510464        1.34373530671712        0.00596745883277
H           -6.62781901752100        2.97116650296480        1.63458693910753
H           -5.37220646191607        1.08565907720343        2.57456481400823
H           -3.14231199700554        0.48990933578307        1.70276487112392
H           -5.67568262002955        4.34658217222375       -0.18385602532210
H           -4.04671553023248        5.46127419610241       -2.12269964616357
H           -2.22794191776070        5.95044948932410       -3.72283324312396
H           -0.23163869068603        4.53125265869364       -3.82980462695290
H            0.03020697557674        2.59414836570393       -2.32448993302954
H           -2.36399489263822       -0.67562536977683       -0.34307784322878
H            1.36774670811951       -2.65168378681577       -1.91941971499226
H            2.12934808419619       -4.70987412464078       -3.04977401806667
H            1.09374212041522       -6.87628760029853       -2.54620116000968
H           -0.75920814698183       -7.04888486624328       -0.92213780681048
H           -2.77380569527417       -6.52843433461479        0.90872320366311
H           -4.30850347319480       -5.48101231668800        2.53617432336041
H           -4.15624736761864       -3.08716014471039        3.05042764812478
H           -2.48721380284982       -1.65638752714290        1.92700188962098
H            1.73680481819972       -1.73963901760914        0.34933917313615
H            2.96902596214500       -1.08081445832508       -1.71426808176946
H            5.20118436312264       -1.63283695469250       -2.61027818579695
H            7.22094923633712       -0.59969125698999       -1.67828170748263
H            7.07050134176721        1.04511398470763        0.15889504247412
H            6.20088070577800        2.78969620503767        2.12438048284303
H            4.85898631844334        4.08957670291445        3.74185162629156
H            2.42459021987429        3.82225606391292        3.85846390274331
H            1.24491221307595        2.26851132778744        2.34775281010054
H            0.61894308777390        2.38685058270388        0.00831497412810
