  79
  -132.336027878800       0.272462622286891      !
 N         10.2301717098       -1.2653828157        0.2792083384
 C          9.1083948470       -1.4891571761        0.1682008164
 C          7.7376610669       -1.7693676319        0.0283690433
 C          7.3204849596       -3.0637359741       -0.2949011313
 C          5.9801507726       -3.3523634771       -0.4233940379
 C          5.0079224440       -2.3615096107       -0.2334870200
 N          3.7097497370       -2.6218447377       -0.2958851121
 C          2.7931850298       -1.6705613674       -0.1104611281
 C          1.3897213504       -2.0516029743       -0.0831575697
 C          0.4926480011       -1.4704372611        0.8203925228
 C         -0.8411260062       -1.8102208226        0.7982899383
 C         -1.3108263253       -2.7448963740       -0.1219957951
 N         -2.6921844102       -3.0496993782       -0.1706732356
 C         -3.6057590510       -2.0733725524       -0.5547196739
 C         -3.2080774971       -0.8062727773       -0.9698478722
 C         -4.1457761473        0.1430343810       -1.3407838437
 C         -5.4947233227       -0.1560874580       -1.3081670232
 C         -5.9075574167       -1.4227435086       -0.9251362378
 C         -4.9760560808       -2.3784609158       -0.5603287786
 O         -5.4503391332       -3.6181043015       -0.2235755251
 C         -4.5348982696       -4.5774154970        0.1232480660
 C         -5.0248336026       -5.8298748476        0.4472598156
 C         -4.1574914719       -6.8387024622        0.8362580289
 C         -2.8013838542       -6.5822680339        0.9147909213
 C         -2.3035378839       -5.3317137137        0.5892884575
 C         -3.1566418152       -4.3162615955        0.1699144570
 C         -0.4180187018       -3.3679987935       -0.9893538995
 C          0.9184649659       -3.0312834636       -0.9619052544
 C          3.2193586780       -0.3333934214        0.0642002130
 C          2.2704206377        0.7801976765        0.0716315782
 C          2.4117281310        1.8108279546        0.9999713919
 C          1.5009647717        2.8470142043        1.0412559946
 C          0.4423109314        2.8780207287        0.1394052284
 N         -0.5170550308        3.9161780271        0.1943155805
 C         -1.8394916915        3.6253323761        0.5170724324
 C         -2.2526983599        2.3457677577        0.8738985719
 C         -3.5775811232        2.0923130021        1.1885323534
 C         -4.5111400880        3.1106686680        1.1557782690
 C         -4.1116693131        4.3974529454        0.8299209394
 C         -2.7884554298        4.6594572614        0.5223622274
 O         -2.4569018801        5.9580050596        0.2411754389
 C         -1.1445813410        6.2327103477       -0.0443117706
 C         -0.8196950291        7.5505242538       -0.3116037971
 C          0.4826880430        7.8956346073       -0.6371720752
 C          1.4524929316        6.9134435731       -0.7093755574
 C          1.1347432753        5.5923742387       -0.4410253751
 C         -0.1608355535        5.2329043645       -0.0856151622
 C          0.3235406446        1.8781560641       -0.8229581866
 C          1.2297494824        0.8412480078       -0.8578615608
 N          4.5054827723       -0.0587079595        0.1798710665
 C          5.4403727582       -1.0158124686        0.0735429825
 C          6.7925563749       -0.7488330137        0.2077059542
 H          8.0596202831       -3.8380680161       -0.4386244390
 H          5.6460911612       -4.3509470136       -0.6576706274
 H          0.8513447191       -0.7631256336        1.5527735515
 H         -1.5322876276       -1.3608282115        1.4966287536
 H         -2.1572651111       -0.5659734466       -1.0052449267
 H         -3.8139027143        1.1209513045       -1.6524161636
 H         -6.2263629021        0.5845572579       -1.5886143868
 H         -6.9508811362       -1.6939430963       -0.9079243734
 H         -6.0892894158       -5.9923141042        0.3933031304
 H         -4.5465629358       -7.8132566453        1.0845128532
 H         -2.1188814523       -7.3547517851        1.2331949097
 H         -1.2456814458       -5.1372115391        0.6669343658
 H         -0.7827134239       -4.1045844935       -1.6902781311
 H          1.6149451004       -3.5037461029       -1.6370757936
 H          3.2315081099        1.7763150800        1.7006593701
 H          1.5974282074        3.6312986474        1.7775960217
 H         -1.5301917508        1.5457585051        0.9094153711
 H         -3.8753745252        1.0909762335        1.4574719644
 H         -5.5444692874        2.9133761297        1.3918785817
 H         -4.8113600559        5.2175308747        0.8141301456
 H         -1.6029636067        8.2898387050       -0.2642142531
 H          0.7288338209        8.9254226803       -0.8412046767
 H          2.4659037179        7.1673236281       -0.9785275088
 H          1.8958323281        4.8319473412       -0.5147775359
 H         -0.4813409189        1.9268774141       -1.5418071386
 H          1.1427796657        0.0778770319       -1.6163593393
 H          7.1086916819        0.2565443751        0.4384891349
  79
  -132.335963141000       0.254422490288083      !
 N         10.3318077835       -1.2665265827        0.2095785868
 C          9.2097734342       -1.4975899877        0.1164215227
 C          7.8384085371       -1.7864361592        0.0019538244
 C          7.4227550903       -3.0893997748       -0.2865800983
 C          6.0819824426       -3.3858542820       -0.3917900988
 C          5.1082544994       -2.3944981967       -0.2133830874
 N          3.8099549639       -2.6618037786       -0.2574441304
 C          2.8938101478       -1.7092414900       -0.0842660365
 C          1.4861654980       -2.0769091475       -0.0451311071
 C          0.6100439281       -1.4793558108        0.8686614671
 C         -0.7369101624       -1.7581641899        0.8290815113
 C         -1.2392854850       -2.6483343319       -0.1171549456
 N         -2.6390038366       -2.8506434650       -0.2034752799
 C         -3.4537611838       -1.8089301267       -0.6331996037
 C         -2.9316384165       -0.6148347760       -1.1194930403
 C         -3.7713659864        0.4070519741       -1.5292032680
 C         -5.1432379136        0.2530454126       -1.4661424857
 C         -5.6801030173       -0.9418723570       -1.0127495315
 C         -4.8477538674       -1.9705874107       -0.6090016014
 O         -5.4396230608       -3.1361759535       -0.2006195571
 C         -4.6197530960       -4.1714099688        0.1691677436
 C         -5.2264851616       -5.3561344181        0.5451643684
 C         -4.4571128293       -6.4322271749        0.9600945172
 C         -3.0808337810       -6.3120284076        1.0096165392
 C         -2.4657853253       -5.1302554626        0.6312699950
 C         -3.2214844772       -4.0495661948        0.1901219941
 C         -0.3673103414       -3.3077491118       -0.9777469325
 C          0.9833829753       -3.0307792861       -0.9338845620
 C          3.3163758427       -0.3664632883        0.0593622964
 C          2.3502391229        0.7331161809        0.0579108836
 C          2.4546064396        1.7655376740        0.9886720426
 C          1.4980089328        2.7601364721        1.0427904856
 C          0.4302178272        2.7447248081        0.1520908464
 N         -0.5979367786        3.7144827078        0.2342346114
 C         -1.8852563732        3.3209560040        0.5870650569
 C         -2.1725169126        2.0281441957        1.0118227239
 C         -3.4659408247        1.6672431132        1.3498490252
 C         -4.4916474446        2.5900226985        1.2749232596
 C         -4.2173599180        3.8910974479        0.8830864835
 C         -2.9261672405        4.2612679663        0.5519029861
 O         -2.7167937390        5.5691458264        0.2035594010
 C         -1.4327576483        5.9528583275       -0.0868387114
 C         -1.2269428197        7.2847214045       -0.3984195621
 C          0.0409052267        7.7350409505       -0.7322943344
 C          1.0967804936        6.8437148111       -0.7666709058
 C          0.8988598299        5.5091734048       -0.4533229016
 C         -0.3614615160        5.0462665005       -0.0919415364
 C          0.3572925836        1.7548896524       -0.8247240397
 C          1.3096186870        0.7614057456       -0.8737456920
 N          4.6018025778       -0.0836191593        0.1552762141
 C          5.5386409865       -1.0405442611        0.0583838810
 C          6.8913689387       -0.7657274174        0.1700742567
 H          8.1631317461       -3.8641093541       -0.4210037078
 H          5.7490657495       -4.3908575421       -0.5986960559
 H          0.9946539704       -0.8010548929        1.6152621874
 H         -1.4158116883       -1.2890850856        1.5263703561
 H         -1.8616922286       -0.4908719612       -1.1740781492
 H         -3.3466317530        1.3275157756       -1.8983447181
 H         -5.7979383562        1.0517883294       -1.7756876148
 H         -6.7458170151       -1.0991831734       -0.9689938873
 H         -6.3025819009       -5.4133670982        0.5118351119
 H         -4.9376296949       -7.3529786414        1.2501927402
 H         -2.4742475789       -7.1382016825        1.3462769028
 H         -1.3923904519       -5.0388111236        0.6834781772
 H         -0.7583610778       -4.0177070088       -1.6917767345
 H          1.6645196171       -3.5234661042       -1.6103498888
 H          3.2782589397        1.7621627799        1.6858033869
 H          1.5621466426        3.5414455251        1.7857688130
 H         -1.3755208425        1.3044298380        1.0755971709
 H         -3.6686658776        0.6571440405        1.6707193226
 H         -5.5009473076        2.3072307680        1.5274451144
 H         -4.9923885608        4.6386726093        0.8315259697
 H         -2.0742633536        7.9511193810       -0.3795956116
 H          0.1935724462        8.7752816571       -0.9718492700
 H          2.0844604847        7.1799444437       -1.0409427586
 H          1.7256041723        4.8179749351       -0.4956982350
 H         -0.4536500464        1.7738368008       -1.5380061505
 H          1.2553021551        0.0025953023       -1.6398714191
 H          7.2063220441        0.2457109385        0.3746578356
  79
  -132.335870392700       0.230638248717122      !
 N         10.3009480831       -1.2869495780        0.3576729362
 C          9.1798572175       -1.5138362814        0.2439290964
 C          7.8100490324       -1.7954938719        0.0957125552
 C          7.3954443851       -3.0935721110       -0.2145374676
 C          6.0554061613       -3.3830029309       -0.3497152999
 C          5.0829480661       -2.3895550413       -0.1808881920
 N          3.7838844952       -2.6522706670       -0.2483773849
 C          2.8692854807       -1.6981040236       -0.0832317638
 C          1.4598014431       -2.0640772763       -0.0614730484
 C          0.5837206636       -1.4947546369        0.8696349646
 C         -0.7608639450       -1.7853035839        0.8321641847
 C         -1.2628039893       -2.6555063303       -0.1335929347
 N         -2.6566905717       -2.8880701090       -0.2036055950
 C         -3.5155101066       -1.8393087136       -0.5193921114
 C         -3.0468270642       -0.5843592242       -0.8948938469
 C         -3.9296679692        0.4396147497       -1.1939108919
 C         -5.2938820093        0.2289752120       -1.1270783932
 C         -5.7784948465       -1.0242314096       -0.7869641773
 C         -4.9021534682       -2.0549274173       -0.4971580683
 O         -5.4462481656       -3.2768262769       -0.2050689943
 C         -4.5851943798       -4.3140250066        0.0434524717
 C         -5.1464580077       -5.5529497932        0.2947854543
 C         -4.3367606837       -6.6390835134        0.5876866222
 C         -2.9657739948       -6.4739052658        0.6455284742
 C         -2.3966430369       -5.2371606153        0.3922496806
 C         -3.1922501334       -4.1437424218        0.0666412575
 C         -0.3907837474       -3.2741174087       -1.0247372466
 C          0.9580599322       -2.9887668518       -0.9800354853
 C          3.2921007866       -0.3579683103        0.0781584011
 C          2.3349213856        0.7477829451        0.0709521011
 C          2.4682890843        1.7967604291        0.9799506000
 C          1.5293325188        2.8080852743        1.0268144683
 C          0.4488282275        2.7909381364        0.1524586646
 N         -0.5618777773        3.7812772444        0.2270130830
 C         -1.8368927059        3.4262525376        0.6533099085
 C         -2.1191570761        2.1640784174        1.1649224855
 C         -3.4005287015        1.8418633901        1.5797960110
 C         -4.4176515975        2.7735121299        1.4947846571
 C         -4.1476958920        4.0441633669        1.0099957227
 C         -2.8688698985        4.3757552178        0.5998712293
 O         -2.6616786114        5.6541852377        0.1538687830
 C         -1.3884637126        6.0004317105       -0.2193908631
 C         -1.1843340336        7.3019287463       -0.6405544722
 C          0.0733466065        7.7100823112       -1.0572350318
 C          1.1211664179        6.8076812185       -1.0606736992
 C          0.9248194840        5.5032665307       -0.6387084631
 C         -0.3260213174        5.0831741491       -0.2006508742
 C          0.3443206462        1.7828393892       -0.8019512182
 C          1.2815963031        0.7749685837       -0.8466557003
 N          4.5781347125       -0.0811589632        0.2005909833
 C          5.5125878555       -1.0398594140        0.1117984123
 C          6.8643669481       -0.7720605470        0.2534890843
 H          8.1353845268       -3.8699914436       -0.3437813879
 H          5.7225584182       -4.3842110101       -0.5742104497
 H          0.9678900879       -0.8310334051        1.6295689649
 H         -1.4379965285       -1.3423934147        1.5479516505
 H         -1.9838557834       -0.4124625849       -0.9519832267
 H         -3.5443089046        1.4062986732       -1.4775429917
 H         -5.9821376575        1.0287144853       -1.3483875524
 H         -6.8365109958       -1.2271373364       -0.7474953364
 H         -6.2202306870       -5.6437006637        0.2628086183
 H         -4.7815301830       -7.6023074767        0.7793819824
 H         -2.3266350292       -7.3079906425        0.8898802494
 H         -1.3268532148       -5.1156184166        0.4535425175
 H         -0.7801629972       -3.9603024267       -1.7624390419
 H          1.6374106196       -3.4528317317       -1.6781870211
 H          3.3028559262        1.7938824642        1.6637197040
 H          1.6178874606        3.6053829349        1.7498665835
 H         -1.3285171649        1.4341682526        1.2350894205
 H         -3.6001797326        0.8552053408        1.9675661037
 H         -5.4181727617        2.5207662540        1.8076912274
 H         -4.9168998695        4.7967335278        0.9443964415
 H         -2.0244710346        7.9784003526       -0.6404599623
 H          0.2244117465        8.7267592930       -1.3832686784
 H          2.1008095512        7.1115959618       -1.3953797543
 H          1.7430679783        4.8006349835       -0.6575899424
 H         -0.4778032062        1.7998985246       -1.5025108525
 H          1.2050418098        0.0050587029       -1.5993041977
 H          7.1792637678        0.2358180573        0.4740780504
  79
  -132.335457424000       0.148985518823396      !
 N         10.1627722816       -1.2983608364        0.3627668885
 C          9.0411876528       -1.5098339133        0.2271366962
 C          7.6715557023       -1.7743375578        0.0515389495
 C          7.2519505918       -3.0525489876       -0.3288486629
 C          5.9123773753       -3.3272448261       -0.4903582394
 C          4.9431448153       -2.3379011426       -0.2780059509
 N          3.6449159695       -2.5873716139       -0.3661768104
 C          2.7301137877       -1.6383177355       -0.1581602702
 C          1.3284355988       -2.0244893163       -0.1437350025
 C          0.4222817900       -1.4643022463        0.7638220740
 C         -0.9014048972       -1.8423327335        0.7552514232
 C         -1.3528855949       -2.7939475947       -0.1568780971
 N         -2.7190635520       -3.1632247211       -0.1738643634
 C         -3.6923069061       -2.2313393380       -0.5193740276
 C         -3.3733439183       -0.9377739010       -0.9205454733
 C         -4.3690135970       -0.0353531687       -1.2562516365
 C         -5.6988277597       -0.4080741271       -1.2003232059
 C         -6.0338892259       -1.7008811035       -0.8288632360
 C         -5.0441185310       -2.6098136090       -0.4998911269
 O         -5.4440383566       -3.8780310313       -0.1732058649
 C         -4.4718707479       -4.7889454593        0.1484116022
 C         -4.8881794341       -6.0673085375        0.4742197622
 C         -3.9610839350       -7.0311184853        0.8383918251
 C         -2.6191833055       -6.7033321394        0.8911513610
 C         -2.1951015036       -5.4262650043        0.5642864194
 C         -3.1088082867       -4.4550265767        0.1681913150
 C         -0.4531492458       -3.3824127977       -1.0415223108
 C          0.8732146302       -3.0086108794       -1.0266816550
 C          3.1620791613       -0.3101998189        0.0637986525
 C          2.2253978163        0.8132351531        0.0848253260
 C          2.3731766182        1.8257751029        1.0320603776
 C          1.4892786855        2.8845920270        1.0700763259
 C          0.4523475111        2.9587621869        0.1452986763
 N         -0.4670793513        4.0325575235        0.1865802268
 C         -1.8117945989        3.7930107656        0.4559967118
 C         -2.2948462902        2.5241012828        0.7594940786
 C         -3.6397717433        2.3230825425        1.0231783653
 C         -4.5249778641        3.3838636929        0.9902288621
 C         -4.0568091647        4.6594936515        0.7162518919
 C         -2.7132193479        4.8688401757        0.4612223072
 O         -2.3149546428        6.1587777046        0.2319215206
 C         -0.9843686752        6.3807244593       -0.0110020662
 C         -0.5942067741        7.6889312838       -0.2347531630
 C          0.7303093848        7.9832748534       -0.5176535764
 C          1.6567387983        6.9601928158       -0.5916014110
 C          1.2734757510        5.6485601999       -0.3659895258
 C         -0.0454817118        5.3388070987       -0.0518140513
 C          0.3221523401        1.9711259271       -0.8282856069
 C          1.2001331766        0.9099688269       -0.8584670986
 N          4.4478689558       -0.0484431158        0.2072867448
 C          5.3788277409       -1.0069706564        0.0842275479
 C          6.7300308667       -0.7543809887        0.2514925167
 H          7.9887207058       -3.8258496405       -0.4893460591
 H          5.5759391993       -4.3142774142       -0.7664468221
 H          0.7672626275       -0.7478451723        1.4939382313
 H         -1.5968539789       -1.4140947622        1.4626101733
 H         -2.3381158533       -0.6398176154       -0.9756115317
 H         -4.0965623296        0.9637766121       -1.5589746848
 H         -6.4756821571        0.2955663430       -1.4531947954
 H         -7.0602691428       -2.0288529755       -0.7937700791
 H         -5.9434096000       -6.2856924039        0.4397553428
 H         -4.2927892783       -8.0265450518        1.0874198127
 H         -1.8900413285       -7.4403156098        1.1896138037
 H         -1.1474274769       -5.1773541069        0.6218630330
 H         -0.8038876511       -4.1280886618       -1.7399434337
 H          1.5760615868       -3.4611076193       -1.7088137016
 H          3.1790107981        1.7613089770        1.7468378903
 H          1.5919252966        3.6561730088        1.8189461835
 H         -1.6113308565        1.6904328366        0.7967047323
 H         -3.9907303688        1.3287736579        1.2515724470
 H         -5.5737890974        3.2278219182        1.1855051552
 H         -4.7174016223        5.5113084637        0.7029820122
 H         -1.3453170715        8.4610160295       -0.1897038745
 H          1.0273124280        9.0056961474       -0.6886037557
 H          2.6870261797        7.1743184571       -0.8294202841
 H          2.0018253766        4.8570688666       -0.4425648961
 H         -0.4652686725        2.0512200396       -1.5634826487
 H          1.1070243956        0.1582877358       -1.6278371589
 H          7.0484665870        0.2393570242        0.5253317581
  79
  -132.334482287600       5.308873739134622E-002 !
 N         10.5263419964       -1.4238853672        0.4614023378
 C          9.4073147421       -1.6256298817        0.2932846256
 C          8.0403373240       -1.8782842210        0.0827207849
 C          7.6293758905       -3.1177049023       -0.4145688974
 C          6.2922325735       -3.3780786073       -0.6173154403
 C          5.3172852413       -2.4134211580       -0.3313241275
 N          4.0202852591       -2.6595586287       -0.4719843157
 C          3.1106925674       -1.7292646100       -0.1931101068
 C          1.6803706155       -2.0258961890       -0.2308111308
 C          0.8942683746       -1.6950623027        0.8771966942
 C         -0.4752358533       -1.8232170288        0.8281080920
 C         -1.0869868532       -2.2651938584       -0.3393621855
 N         -2.5072235589       -2.2465183447       -0.4209408865
 C         -3.1407530623       -1.0879533318       -0.8534997338
 C         -2.4329749791       -0.0271206227       -1.4055220047
 C         -3.0925444807        1.1151739758       -1.8267747444
 C         -4.4649451728        1.2168283602       -1.7022778852
 C         -5.1849392088        0.1668954431       -1.1541705582
 C         -4.5344584062       -0.9786612174       -0.7331923336
 O         -5.3005977087       -1.9793094773       -0.1971610192
 C         -4.6545036500       -3.0976879889        0.2651803540
 C         -5.4278253068       -4.0919405160        0.8362277569
 C         -4.8311028186       -5.2452852985        1.3234299247
 C         -3.4596763027       -5.3990832636        1.2387102922
 C         -2.6781022387       -4.4079439620        0.6685920878
 C         -3.2620962892       -3.2471007661        0.1748157567
 C         -0.3115441010       -2.6748775364       -1.4176861930
 C          1.0651798585       -2.5733818601       -1.3558748193
 C          3.5326198119       -0.4336222726        0.1811521316
 C          2.5172819280        0.6268399551        0.2541441743
 C          2.2678891005        1.3502580493        1.4160565964
 C          1.1863395398        2.2099598595        1.4810083001
 C          0.3649593915        2.3797756244        0.3728827760
 N         -0.8131526163        3.1700488686        0.4511674002
 C         -1.9788837635        2.6011228692        0.9561127112
 C         -1.9800208535        1.3633668761        1.5867595955
 C         -3.1592081355        0.8148102871        2.0624941780
 C         -4.3538365281        1.4936775652        1.9198945326
 C         -4.3694859583        2.7300521109        1.2940858703
 C         -3.1966781910        3.2824406376        0.8122013329
 O         -3.2851547172        4.4970667183        0.1861320981
 C         -2.1384339888        5.0156800152       -0.3590103791
 C         -2.2414711986        6.2189712669       -1.0332128615
 C         -1.1166371367        6.7990044704       -1.6000949141
 C          0.1104692329        6.1727109676       -1.4864212200
 C          0.2212626064        4.9667489376       -0.8141612345
 C         -0.8987076728        4.3687155674       -0.2479996386
 C          0.6703561638        1.7373199419       -0.8215127297
 C          1.7300677224        0.8588205617       -0.8746415911
 N          4.8106943152       -0.1740734038        0.3659637883
 C          5.7437585761       -1.1209716212        0.1604937586
 C          7.0922398504       -0.8830357239        0.3649302231
 H          8.3696815628       -3.8724614754       -0.6354539169
 H          5.9615928001       -4.3360135400       -0.9870147776
 H          1.3677816175       -1.3352318587        1.7780765789
 H         -1.0850078079       -1.5703787598        1.6823970763
 H         -1.3609260955       -0.1040384186       -1.4957550191
 H         -2.5276185611        1.9280933951       -2.2581872689
 H         -4.9792809647        2.1069856333       -2.0271767361
 H         -6.2558115921        0.2183115562       -1.0426590513
 H         -6.4945216812       -3.9447634597        0.8907846583
 H         -5.4416419098       -6.0163021620        1.7657430658
 H         -2.9881280145       -6.2935549721        1.6148724393
 H         -1.6078942421       -4.5281020465        0.5997133767
 H         -0.7947630708       -3.0499900164       -2.3075916841
 H          1.6730384684       -2.8775495347       -2.1942786518
 H          2.9021979943        1.2072945885        2.2777453670
 H          0.9607826563        2.7382416945        2.3954087010
 H         -1.0493711255        0.8293971108        1.6924861467
 H         -3.1395251243       -0.1487061393        2.5495166617
 H         -5.2734650409        1.0679865639        2.2880561276
 H         -5.2865547317        3.2813041178        1.1632719188
 H         -3.2105099514        6.6865721415       -1.1022019677
 H         -1.2056396627        7.7378733713       -2.1229982363
 H          0.9922142742        6.6200630994       -1.9179296950
 H          1.1811755258        4.4829376655       -0.7203344541
 H          0.0601822034        1.9173480942       -1.6941259427
 H          1.9484240386        0.3349221478       -1.7931508912
 H          7.4047351195        0.0822551726        0.7316756043
  79
  -132.333859865100       2.747620961058467E-002 !
 N         10.5991876216       -1.4586518794        0.5081202132
 C          9.4823687574       -1.6551197280        0.3197474993
 C          8.1188984219       -1.9042134153        0.0841914591
 C          7.7165826759       -3.1332560978       -0.4434331074
 C          6.3820615024       -3.3908184400       -0.6697457019
 C          5.4019328414       -2.4339003371       -0.3781832469
 N          4.1071990302       -2.6771327141       -0.5449843933
 C          3.1944432316       -1.7532285944       -0.2617217007
 C          1.7536543943       -2.0176215068       -0.3267204143
 C          1.0036149341       -1.8748794884        0.8429046552
 C         -0.3717629592       -1.9164367579        0.8065685828
 C         -1.0280596017       -2.0711231615       -0.4106839674
 N         -2.4382912979       -1.9439874369       -0.4594608341
 C         -3.0084758200       -0.7936540840       -1.0023799171
 C         -2.2562987172        0.1583712661       -1.6802870956
 C         -2.8531885116        1.2942105415       -2.2021337801
 C         -4.2117522686        1.4997941707       -2.0579160258
 C         -4.9746710442        0.5665732357       -1.3747963578
 C         -4.3836784860       -0.5661370884       -0.8444726230
 O         -5.1949606389       -1.4273976396       -0.1565770380
 C         -4.6135311912       -2.5324252652        0.4077928342
 C         -5.4351147494       -3.3874836311        1.1204259679
 C         -4.9155496493       -4.5373641361        1.6948762916
 C         -3.5739214799       -4.8334031841        1.5423870836
 C         -2.7450067537       -3.9802150437        0.8331391514
 C         -3.2459415325       -2.8113773293        0.2701246949
 C         -0.2881337382       -2.3042936056       -1.5659526637
 C          1.0932552898       -2.2927632271       -1.5210986424
 C          3.6056070822       -0.4732716225        0.1673370103
 C          2.5625680093        0.5591309139        0.2751633191
 C          2.1756988745        1.1180808108        1.4880808426
 C          1.0440727922        1.9101160563        1.5594114063
 C          0.2990124098        2.1710286220        0.4139365064
 N         -0.9333533973        2.8649262793        0.4851713015
 C         -2.0517154940        2.2355822076        1.0318290676
 C         -1.9647806281        1.0290172321        1.7157696067
 C         -3.0966866314        0.4249656248        2.2380354346
 C         -4.3365058485        1.0159408455        2.0893271827
 C         -4.4429259306        2.2139511367        1.4016679706
 C         -3.3175066710        2.8178947979        0.8701805323
 O         -3.5065990146        3.9825093940        0.1766326239
 C         -2.4037098577        4.5756397601       -0.3793190630
 C         -2.6031668518        5.7475062905       -1.0872466013
 C         -1.5266095561        6.4136127826       -1.6522133231
 C         -0.2493639728        5.9093159550       -1.4936223106
 C         -0.0431730618        4.7347173872       -0.7894302306
 C         -1.1151218213        4.0411830148       -0.2382196736
 C          0.7484927199        1.7068986221       -0.8184265780
 C          1.8611826514        0.8980272889       -0.8821577979
 N          4.8817126104       -0.2145658320        0.3712083049
 C          5.8195810002       -1.1512170398        0.1482000480
 C          7.1651053412       -0.9162358240        0.3747028380
 H          8.4604855343       -3.8828937204       -0.6697366466
 H          6.0581659808       -4.3405305206       -1.0655973894
 H          1.5108448713       -1.7168795513        1.7827313179
 H         -0.9493456220       -1.8066053159        1.7118914178
 H         -1.1942823176        0.0082083761       -1.7882621633
 H         -2.2486181861        2.0210733058       -2.7242959947
 H         -4.6787872885        2.3834681899       -2.4624234716
 H         -6.0343929749        0.7025763103       -1.2324873104
 H         -6.4800265728       -3.1371864600        1.2098941478
 H         -5.5628402219       -5.1986683177        2.2485325926
 H         -3.1626214783       -5.7339561342        1.9710628448
 H         -1.7013027145       -4.2222774951        0.7064974860
 H         -0.8026730263       -2.4722449347       -2.5005853478
 H          1.6675751420       -2.4580704242       -2.4201458942
 H          2.7440628074        0.9023794868        2.3802894687
 H          0.7205744235        2.3146827284        2.5071565051
 H         -1.0019513157        0.5580165862        1.8277506988
 H         -3.0043255763       -0.5137151041        2.7642210417
 H         -5.2195881683        0.5479720879        2.4940351227
 H         -5.3961000393        2.6953346587        1.2555316403
 H         -3.6090855249        6.1237314831       -1.1810437278
 H         -1.6907980926        7.3259240858       -2.2031840603
 H          0.5976674075        6.4288685183       -1.9136036790
 H          0.9572035869        4.3523051647       -0.6585641845
 H          0.2043563492        1.9635651824       -1.7148342647
 H          2.1850830789        0.5048885724       -1.8341763702
 H          7.4705794489        0.0408109702        0.7676371926
  79
  -132.333147268200       1.292617288257735E-002 !
 N         10.6192022601       -1.4679631342        0.5171057145
 C          9.5031623086       -1.6621200059        0.3223281905
 C          8.1400640434       -1.9097963478        0.0838485005
 C          7.7387883633       -3.1367050112       -0.4490621535
 C          6.4046339486       -3.3935881928       -0.6785244938
 C          5.4237021521       -2.4382341410       -0.3848766451
 N          4.1294158847       -2.6804343762       -0.5553372872
 C          3.2156402016       -1.7588695104       -0.2685484268
 C          1.7736760418       -2.0177896913       -0.3393954597
 C          1.0240829014       -1.8962344358        0.8327424424
 C         -0.3515789059       -1.9133534370        0.7941752060
 C         -1.0101601634       -2.0210880996       -0.4273998631
 N         -2.4147770369       -1.8500697337       -0.4781091428
 C         -2.9494374191       -0.6929920101       -1.0461660598
 C         -2.1716782200        0.2175737112       -1.7518749310
 C         -2.7333090197        1.3589934310       -2.3003605290
 C         -4.0839091475        1.6123218047       -2.1576465079
 C         -4.8718677924        0.7228546311       -1.4456806470
 C         -4.3148230558       -0.4139482982       -0.8871313908
 O         -5.1508831343       -1.2256045548       -0.1700860606
 C         -4.6039701251       -2.3323786784        0.4229637140
 C         -5.4500581423       -3.1325550877        1.1698047316
 C         -4.9704250770       -4.2858385685        1.7709283586
 C         -3.6449065181       -4.6419533025        1.6074376574
 C         -2.7914783582       -3.8429001957        0.8649110944
 C         -3.2497497324       -2.6675833744        0.2794749368
 C         -0.2714001195       -2.2465456684       -1.5855616614
 C          1.1101012095       -2.2582156029       -1.5393334633
 C          3.6256598122       -0.4814296330        0.1697464516
 C          2.5786623811        0.5467536413        0.2854171809
 C          2.1708813663        1.0771120213        1.5041395384
 C          1.0271524763        1.8515358499        1.5784639662
 C          0.2860919958        2.1202114287        0.4314834123
 N         -0.9663620543        2.7747154991        0.5057451693
 C         -2.0589613829        2.1191697547        1.0778169909
 C         -1.9265807020        0.9357265909        1.7943934939
 C         -3.0323523353        0.3061705853        2.3423754227
 C         -4.2934675131        0.8489917726        2.1896693486
 C         -4.4461046773        2.0222042649        1.4693066368
 C         -3.3465302776        2.6497551483        0.9107171309
 O         -3.5854176532        3.7847418843        0.1850437012
 C         -2.5098245076        4.4028666968       -0.3951349538
 C         -2.7608625954        5.5435269153       -1.1368504889
 C         -1.7155678645        6.2379095803       -1.7251908986
 C         -0.4173935820        5.7952613134       -1.5526831672
 C         -0.1600042766        4.6516534718       -0.8153481729
 C         -1.2001693437        3.9255900147       -0.2450421858
 C          0.7631116245        1.6952601712       -0.8053869123
 C          1.8892840573        0.9058783565       -0.8729585310
 N          4.9014980189       -0.2231362995        0.3746037220
 C          5.8403266031       -1.1575995651        0.1476360719
 C          7.1854148497       -0.9232650157        0.3769623222
 H          8.4830735823       -3.8856071939       -0.6762595481
 H          6.0818343450       -4.3417379432       -1.0788226651
 H          1.5324943773       -1.7700694122        1.7769264911
 H         -0.9273119183       -1.8167257246        1.7018220452
 H         -1.1160172870        0.0309134503       -1.8622912027
 H         -2.1077346611        2.0520535795       -2.8434548151
 H         -4.5240409063        2.4991686172       -2.5846310320
 H         -5.9258617407        0.8963116244       -1.3019298656
 H         -6.4827123461       -2.8370640979        1.2633911583
 H         -5.6363456743       -4.9033329229        2.3524855116
 H         -3.2650218758       -5.5475746536        2.0540295406
 H         -1.7614950658       -4.1340196759        0.7301465522
 H         -0.7862253430       -2.3882320026       -2.5244100421
 H          1.6825230473       -2.4116558853       -2.4417618006
 H          2.7316712426        0.8515674307        2.3986120078
 H          0.6910664485        2.2350066421        2.5305144708
 H         -0.9478517845        0.5007288715        1.9127216158
 H         -2.9025614550       -0.6147158381        2.8918736156
 H         -5.1561464555        0.3616604107        2.6149851566
 H         -5.4164305585        2.4663219667        1.3178186344
 H         -3.7823561420        5.8737304783       -1.2368412612
 H         -1.9198264568        7.1253635150       -2.3028829077
 H          0.4060350345        6.3399474535       -1.9876557493
 H          0.8563945638        4.3191794706       -0.6732662178
 H          0.2279201666        1.9635768147       -1.7033567737
 H          2.2305820459        0.5391295555       -1.8294855399
 H          7.4901028846        0.0321459797        0.7747209448
