87
 energy: -129.962862418356 gnorm: 0.000052441717 xtb: 6.7.1 (edcfbbe)
C            6.98064735295555        2.97839883657831        0.32540848890402
C            5.76124318693653        2.24504945342576       -0.15016638134934
C            4.71594639503296        2.96375582511564       -0.73841876371871
C            3.56383247565754        2.35048220203307       -1.18683513841348
C            3.46593463073984        0.97459354876694       -1.04743329241031
C            4.51078813503725        0.22840988113931       -0.46108495464029
C            5.65531923604866        0.87262924548849       -0.01223864735223
C            4.08543958029227       -1.14305825123697       -0.46376769119099
C            4.68522319963400       -2.33003354350619       -0.06261294681029
C            4.01401719004227       -3.52428901691305       -0.25213017996024
C            4.61841959764427       -4.82793284473747        0.17938124301090
C            2.75958227395116       -3.52344290789169       -0.87192952146316
C            2.14175541499500       -2.35954010397425       -1.27849343341282
C            2.79641349102845       -1.16354755114161       -1.03542513446502
N            2.42018947383967        0.12858097437748       -1.35849396610720
C            1.19666483680621        0.50639743525426       -1.91639792349291
C            1.18798554668671        1.19283848179977       -3.12786090283139
C           -0.01021733056277        1.55787560115254       -3.71186981740002
C           -1.20534061764015        1.19272953322982       -3.12163800162424
C           -1.20768080003075        0.50629461574236       -1.91014461538907
N           -2.42823628205445        0.12849829369918       -1.34577327925539
C           -2.80226958308764       -1.16352549527937       -1.01971913655676
C           -2.14923176545807       -2.35960321207341       -1.26667173356628
C           -2.76441317906752       -3.52338317645988       -0.85573469232626
C           -4.01479242155382       -3.52403751636568       -0.22781542393343
C           -4.61558148600498       -4.82723129193987        0.21001953557920
C           -4.68480551551745       -2.32971876199136       -0.03446031073635
C           -4.08764425864318       -1.14290535939997       -0.43992200127613
C           -4.51311470988620        0.22850963860436       -0.43519064316382
C           -5.65466058821903        0.87277106884983        0.02106165385001
C           -5.76159872203512        2.24515833431423       -0.11654231902629
C           -6.97886718256230        2.97806942781106        0.36513255753994
C           -4.72038085751165        2.96368918768686       -0.71215263341789
C           -3.57115674147815        2.35036293804093       -1.16791510708862
C           -3.47212475569072        0.97455392875478       -1.02856653549769
C           -0.00379656002150        0.20229414828280       -1.26479094327670
P            0.00080650158353       -0.44749506317309        0.46300440658275
O            0.00092083663393       -1.90422681197834        0.62196211656125
C            1.42939751623515        0.33560877965217        1.28342824531676
C            2.24774174145342       -0.51929757437660        2.00897836798658
C            3.32986204123022       -0.02031933564286        2.70981088879248
C            3.59048879743043        1.33944591081599        2.69929381271661
C            2.77096105735014        2.19632734816328        1.98365923508762
C            1.69573952366930        1.69814525103061        1.27177518620238
C           -1.42289799270733        0.33644308119798        1.29104950668333
C           -1.68920326071841        1.69898825010664        1.27965984040740
C           -2.76019032626739        2.19793510647886        1.99736840906201
C           -3.57561288876358        1.34179540786654        2.71855149768600
C           -3.31507811124788       -0.01799287736705        2.72876756085462
C           -2.23710029640589       -0.51772015209577        2.02210903797338
H            6.70730227087120        3.73889025912589        1.05620315162363
H            7.47317146037582        3.48014186893724       -0.50715335749177
H            7.69004164865992        2.29500492352688        0.78492697269680
H            4.81578414890580        4.03532157408843       -0.83865015868366
H            2.76313247530211        2.92865017322490       -1.62435032611159
H            6.45213731485673        0.30402786320404        0.44415046095939
H            5.66825460432953       -2.31550939296236        0.38515729850183
H            4.72194948851514       -5.50109753298891       -0.67105118738128
H            3.97861038589690       -5.31642878308266        0.91348626223407
H            5.59961507003668       -4.67492733078208        0.62182046407749
H            2.26199904324668       -4.46773149444958       -1.03675757748712
H            1.18121793894006       -2.38353717708090       -1.76830356246755
H            2.12840280172764        1.42348526491483       -3.60531628823788
H           -0.01266205737075        2.09735611841234       -4.64694387388239
H           -2.14824389737740        1.42344265515562       -3.59412774068315
H           -1.19195701388812       -2.38379636388823       -1.76283296925798
H           -2.26790940855293       -4.46771354562954       -1.02354266683372
H           -5.60393576847426       -4.67661262387299        0.63709347362864
H           -3.98254843805576       -5.30180612588735        0.95913206692005
H           -4.70165185727440       -5.51133343896387       -0.63345905298461
H           -5.66496179702853       -2.31502471263549        0.41956023271055
H           -6.44829332641450        0.30425529237588        0.48306990426979
H           -7.49447162120953        3.45101795739802       -0.47046948248855
H           -7.67089504737261        2.29967844718497        0.85740448286677
H           -6.69942996137399        3.76143899646932        1.06875041126833
H           -4.82095709471998        4.03520888637421       -0.81215171293895
H           -2.77337695934487        2.92851874204150       -1.61074961497242
H            2.02559201723703       -1.57656347811741        1.99986601578731
H            3.97083643169229       -0.69210305949158        3.26123237750665
H            4.43482662642800        1.73380334103221        3.24493026761655
H            2.97750214527902        3.25633741779228        1.97033970952907
H            1.07891324987311        2.36978643600071        0.69348295548837
H           -1.07578154584252        2.37001417306487        0.69703151948851
H           -2.96674384990709        3.25794139473509        1.98425052155940
H           -4.41673377737255        1.73676983398758        3.26868603872323
H           -3.95293775982866       -0.68921698783204        3.28446874383238
H           -2.01512574054809       -1.57502045928377        2.01259072101503
