87
 energy: -129.860097479662 gnorm: 0.000219845975 xtb: 6.7.1 (edcfbbe)
C            7.05743053323666        2.85353816122693        0.37908234857080
C            5.82424232725476        2.15175164930554       -0.10082389021647
C            4.80666288975777        2.89176568242527       -0.70980410938674
C            3.63903035560468        2.30341432202378       -1.15843967521551
C            3.49751647679884        0.93267639678939       -0.99929897058037
C            4.51279218205929        0.16721301573521       -0.37577409677814
C            5.67183991572359        0.78222534656825        0.06916546432049
C            4.03366945643271       -1.18645118744744       -0.33489152948276
C            4.57113166308519       -2.37675047710041        0.12508558314237
C            3.84669584990507       -3.55322427727140       -0.02875580609870
C            4.38533053913466       -4.85573988752673        0.47652180764899
C            2.60435108545609       -3.52605229537030       -0.67200225322196
C            2.04605001684342       -2.35252591932441       -1.13660326253121
C            2.74815506095684       -1.17307491179133       -0.93170101789000
N            2.43311087106375        0.11177305363159       -1.31068696424253
C            1.21522966220409        0.52777127679402       -1.84627812581561
C            1.20310862729197        1.33500889679362       -2.96308145617081
C           -0.00147495068575        1.75743612141779       -3.53116367166013
C           -1.20574409599123        1.33579728667195       -2.96185531865655
C           -1.21729505788969        0.52857766452983       -1.84500868585104
N           -2.43490179517453        0.11342541248420       -1.30817827022923
C           -2.75044508349893       -1.17115041317225       -0.92876357393003
C           -2.04935671507449       -2.35114835710027       -1.13426218873470
C           -2.60800720490300       -3.52422679534934       -0.66901573218648
C           -3.84971464637862       -3.55052334268495       -0.02452294733360
C           -4.38875124996261       -4.85260701737035        0.48139538527381
C           -4.57318685507498       -2.37348602518794        0.12994824394678
C           -4.03537168175211       -1.18366716152869       -0.33065450180452
C           -4.51363936167090        0.17038228845335       -0.37117091861236
C           -5.67179566073527        0.78614917445007        0.07484299022664
C           -5.82348933895953        2.15579711153842       -0.09511779927176
C           -7.05574095690676        2.85841764770441        0.38593783725572
C           -4.80600479671730        2.89505564366523       -0.70515963858826
C           -3.63922744902353        2.30591305734464       -1.15489315637115
C           -3.49844241273778        0.93506411410603       -0.99578528978527
C           -0.00084610965868        0.08411494210840       -1.22166965665448
P           -0.00001962345625       -0.36995707799010        0.55557145297251
O           -0.00025367556317       -1.81911219209186        0.81109182274090
C            1.41455595068658        0.44811129432715        1.35265962317146
C            2.25682416184499       -0.37711069967266        2.09346128722448
C            3.34345026111688        0.14924283290634        2.76067118386666
C            3.59873492833476        1.51157898548548        2.70422312309470
C            2.76286828222083        2.33831991173207        1.96884256424136
C            1.68267179041397        1.81320061534435        1.28871838197584
C           -1.41331088006673        0.44887568449143        1.35414003416698
C           -1.68075822124921        1.81410387483933        1.29039796896966
C           -2.75991104316097        2.33985724115695        1.97169080138457
C           -3.59539164568906        1.51362039096299        2.70806776361540
C           -3.34079341013608        0.15114844622266        2.76431558172688
C           -2.25520295140844       -0.37584375913071        2.09592288836927
H            7.77985531465291        2.14599007305478        0.77734313703346
H            6.80323107979492        3.56747622114185        1.16227795619072
H            7.52283988043925        3.40832133676800       -0.43473080952736
H            4.93641129891169        3.95821962664382       -0.82290129446658
H            2.85745572479471        2.90082742442834       -1.60145124397336
H            6.44393015715509        0.20177553930928        0.55174130291394
H            5.54315502614190       -2.38969024567103        0.59584891543530
H            4.39124269031600       -5.60160270203030       -0.31726269935404
H            3.75341822804913       -5.23416526947289        1.27982010270016
H            5.39705245103777       -4.74086053523900        0.85716354723361
H            2.06792299299678       -4.45334847164735       -0.80496762485362
H            1.09795401762315       -2.35222995733833       -1.64764790408103
H            2.13927619572515        1.59681490487046       -3.43463277707343
H           -0.00173432064908        2.35757461673404       -4.42547370210467
H           -2.14221518613202        1.59820466775474       -3.43246221388664
H           -1.10176897111994       -2.35153652594718       -1.64624841924356
H           -2.07235287203817       -4.45191559229699       -0.80245363560564
H           -5.39996823149827       -4.73698298909957        0.86315444496696
H           -3.75622675950460       -5.23147893451416        1.28400650768297
H           -4.39609308716521       -5.59849454056495       -0.31235889259781
H           -5.54474519218436       -2.38574506177195        0.60170984401380
H           -6.44382648650478        0.20626727002105        0.55822182329760
H           -7.77840943531416        2.15134272119691        0.78460097404545
H           -6.80035892840442        3.57195519918454        1.16912030331713
H           -7.52136163765287        3.41378078501859       -0.42736090008781
H           -4.93516171766358        3.96160029741772       -0.81821826861751
H           -2.85768643938204        2.90276450814526       -1.59873330433895
H            2.03715701252517       -1.43462332779663        2.12730612383879
H            3.99435005203795       -0.50030143463114        3.32821245669613
H            4.44725053729670        1.92777487585700        3.22681940285530
H            2.96336046345101        3.39909060925860        1.91795568477881
H            1.05928828693969        2.46181714452606        0.69152358258369
H           -1.05769484154437        2.46233413805146        0.69244772299692
H           -2.95988906157093        3.40073261127941        1.92094362896678
H           -4.44309621187817        1.93031288287622        3.23158898366361
H           -3.99141525901499       -0.49800420846174        3.33262488559100
H           -2.03607939085069       -1.43347621604432        2.12957949030199
