87
 energy: -129.962862378993 gnorm: 0.000023648936 xtb: 6.7.1 (edcfbbe)
C            6.97221790227092        3.01788179196750        0.30901726052343
C            5.75609434945998        2.26112923930495       -0.13739064025216
C            4.71124671723088        2.95029864572992       -0.76076022700929
C            3.56197746104025        2.31487411518848       -1.18497400311070
C            3.46652786562835        0.94640398878058       -0.98422622822679
C            4.51115227922254        0.22966635559222       -0.36189638743175
C            5.65275930435307        0.89599977283937        0.06139074210167
C            4.08883631800542       -1.14152164608873       -0.30458383373443
C            4.69045013106288       -2.30797575485727        0.15033163125686
C            4.02281233202511       -3.51121082265375        0.01192905449342
C            4.62938678345832       -4.79279057307298        0.50245826896227
C            2.76990131978322       -3.54096712398005       -0.61024090596499
C            2.15022718973929       -2.39780512568647       -1.06953143595173
C            2.80149885064262       -1.19058271668732       -0.87836016804576
N            2.42354859539112        0.08490558433925       -1.26015861454667
C            1.20108147894244        0.43549740196887       -1.83788642311753
C            1.19552912671188        1.06620355804921       -3.07931398736751
C           -0.00107697552777        1.40438712835122       -3.68240724876347
C           -1.19769357949198        1.06701201376276       -3.07886603244183
C           -1.20319030761815        0.43633182433715       -1.83743291614217
N           -2.42563041345194        0.08659279753611       -1.25913532051385
C           -2.80386588718407       -1.18850817170422       -0.87638923585760
C           -2.15338071959770       -2.39614106792292       -1.06765597394614
C           -2.77277081045011       -3.53867124269098       -0.60642747310212
C           -4.02467511232357       -3.50787513844549        0.01772143128924
C           -4.63065333896373       -4.78873703316074        0.51085562479651
C           -4.69183675719149       -2.30433246430835        0.15574978294342
C           -4.09046855032611       -1.13848315296258       -0.30104823567790
C           -4.51198843474588        0.23295429065585       -0.35826518452674
C           -5.65246752814397        0.90022300865862        0.06659356244035
C           -5.75484452804886        2.26548226985116       -0.13178646341208
C           -6.96936907374368        3.02336813993000        0.31704390433434
C           -4.71027561015312        2.95382647945418       -0.75653965539852
C           -3.56219639862017        2.31743928326417       -1.18252268117551
C           -3.46762651549233        0.94887676851879       -0.98198669100282
C           -0.00102341110815        0.16109158418231       -1.17621929666170
P           -0.00064636935351       -0.41260568615144        0.57826502204287
O           -0.00053470143944       -1.86117932423581        0.79961593167957
C            1.42543804031360        0.40586136607573        1.36792186045536
C            2.24101462540521       -0.41616349552491        2.13346938666882
C            3.32043080695323        0.11334315298953        2.81581229263248
C            3.58109496890122        1.47137499616878        2.74641590282741
C            2.76439594357720        2.29577703956405        1.99053174813757
C            1.69186274600146        1.76658570343293        1.29720732534290
C           -1.42603276760479        0.40582639873817        1.36920715850978
C           -1.69231851243224        1.76661013714522        1.29907992054443
C           -2.76390837125495        2.29585589038947        1.99382189252477
C           -3.57981628559631        1.47144803496704        2.75055179172527
C           -3.31936023872606        0.11334305622355        2.81928492812064
C           -2.24087744552285       -0.41622266814381        2.13550946151601
H            7.68038954459325        2.35783727094307        0.80324584034658
H            6.69440494429369        3.81127785011368        1.00216337319725
H            7.46798611856163        3.48091888372485       -0.54381030531121
H            4.80911967130937        4.01651334703937       -0.90867251795545
H            2.76153433368490        2.87098531503098       -1.65066156897379
H            6.44925065911023        0.35023310516669        0.54538745581913
H            5.67224062285525       -2.27106812487796        0.59953829280689
H            4.72522124368989       -5.50748289837885       -0.31425215467026
H            3.99507639735295       -5.24329774161947        1.26514470011773
H            5.61422833301196       -4.61941926154787        0.92901707247865
H            2.27510200399541       -4.49291962086196       -0.73435378464948
H            1.19091963141107       -2.44595171753914       -1.56000023728673
H            2.13725434938024        1.27504992831216       -3.56417575287678
H           -0.00108421945193        1.90066346190928       -4.64111087449837
H           -2.13945565979939        1.27651437661269       -3.56337272971313
H           -1.19482073534685       -2.44504333990888       -1.55951989625178
H           -2.27845911920066       -4.49089981852895       -0.73035293505873
H           -5.61314715394732       -4.61409888795303        0.94227984903556
H           -3.99320462440550       -5.24034585753972        1.27025101643393
H           -4.73154419519684       -5.50306869549186       -0.30557993844599
H           -5.67294753155535       -2.26668778261821        0.60637268273955
H           -6.44878961413945        0.35509339035455        0.55158616456477
H           -7.67927276192744        2.36310606978679        0.80848735569052
H           -6.68984470105259        3.81330492616363        1.01347784501120
H           -7.46369636399985        3.49103567023505       -0.53406657637425
H           -4.80736896152577        4.02016717821241       -0.90405909572903
H           -2.76192534878789        2.87289706249016       -1.64928833860185
H            2.01886802952643       -1.47284077306443        2.16999026002834
H            3.95923590902917       -0.53340739808350        3.39877977464186
H            4.42328933297259        1.88953975616479        3.27744410797540
H            2.97109248154920        3.35417734046897        1.93122120646160
H            1.07726087393217        2.41201635528753        0.68753951579583
H           -1.07830185781130        2.41206077533731        0.68884977488928
H           -2.97043767174206        3.35431695714524        1.93503197461183
H           -4.42122139950774        1.88966990865596        3.28278905459339
H           -3.95758948589552       -0.53340911459113        3.40288143300207
H           -2.01891477050294       -1.47295434487000        2.17151894399892
