87
 energy: -129.860127534749 gnorm: 0.000063697692 xtb: 6.7.1 (edcfbbe)
C            7.08747351769938        2.79111357102501        0.41249163024246
C            5.84715279144886        2.10597730091901       -0.07312381114549
C            4.83927148375867        2.86005847339127       -0.68106211903693
C            3.66644327456602        2.28787885988954       -1.13501555369378
C            3.50809994350735        0.91772194255774       -0.98363388676226
C            4.51320913589850        0.13894313822270       -0.36065970695614
C            5.67780564850305        0.73784084983352        0.09009874191785
C            4.01897754570764       -1.21007824038268       -0.32596262734295
C            4.54127249555320       -2.40709146774423        0.13300347377223
C            3.80424684377539       -3.57488553871542       -0.02605960842816
C            4.32502484792733       -4.88469597833962        0.47918587385177
C            2.56544316177499       -3.53171845077434       -0.67518469731287
C            2.02311015176159       -2.35139277045512       -1.13966964295949
C            2.73641063924263       -1.17979411797553       -0.92698265642860
N            2.43513450708348        0.10991998646723       -1.30104758727153
C            1.22060763321103        0.53797293017879       -1.83330403641007
C            1.20913217401458        1.36584784932175       -2.93329654524627
C            0.00468804858651        1.79976262963763       -3.49475347008377
C           -1.20182661240516        1.36932082641581       -2.93534998922569
C           -1.21755250430260        0.54133921059990       -1.83542300221951
N           -2.43399156515086        0.11617304470439       -1.30544844765497
C           -2.73807488680280       -1.17272391848043       -0.93083904902183
C           -2.02662488359144       -2.34572949151127       -1.14196337183052
C           -2.57166625519678       -3.52481023252706       -0.67747832135177
C           -3.81137764372358       -3.56532043005514       -0.02990094943751
C           -4.33515398317297       -4.87387878696863        0.47546145233367
C           -4.54651732656322       -2.39610485642706        0.12754330133999
C           -4.02150993723872       -1.20030523302740       -0.33148615214530
C           -4.51326930045107        0.14954733091942       -0.36783141711452
C           -5.67734867440140        0.75082578550661        0.08113070079356
C           -5.84409741783215        2.11914154478157       -0.08325010039246
C           -7.08406734754388        2.80672545384933        0.39978258460126
C           -4.83415293795524        2.87102357926645       -0.69049091467316
C           -3.66174798010756        2.29645157238041       -1.14260170477731
C           -3.50597470097176        0.92613576383423       -0.99007523301244
C            0.00043089923281        0.08519013411321       -1.21482344913559
P           -0.00128694330393       -0.35340319441646        0.56715899772664
O           -0.00199559522342       -1.80130188016646        0.83007903988408
C            1.41278125903066        0.46841290293559        1.36065484668848
C            2.25649214121335       -0.35332091901158        2.10370065080332
C            3.34390526139528        0.17639280813039        2.76689747468211
C            3.59850246488874        1.53859846353238        2.70411004409416
C            2.76166971091232        2.36166830479431        1.96584577338420
C            1.68073185718171        1.83316561458785        1.28946763437585
C           -1.41572762581514        0.46959923502466        1.35878061406299
C           -1.68281227799520        1.83448322286108        1.28685192462483
C           -2.76400821212345        2.36389531292829        1.96211756660488
C           -3.60193359743963        1.54162229424585        2.70002177098656
C           -3.34819491160166        0.17928749714188        2.76354658981677
C           -2.26056960641992       -0.35133107703262        2.10141913177987
H            7.79645519774499        2.07425320193710        0.81820578184796
H            6.83894501665978        3.51198214685882        1.19108045744707
H            7.56678470684603        3.33537506162623       -0.40040260756887
H            4.98154114172221        3.92554116778954       -0.78866010724393
H            2.89297382956710        2.89715706402247       -1.57590667909667
H            6.44131713465492        0.14597984857558        0.57257423694001
H            5.51130569541011       -2.43213917624761        0.60744330873424
H            5.33751872380842       -4.78334070325678        0.86159050002787
H            4.32240811709877       -5.63020242361643       -0.31492734445171
H            3.68687637179730       -5.25503723892502        1.28133789332496
H            2.01939558487954       -4.45267182073502       -0.81347511867376
H            1.07849468658112       -2.33899437264052       -1.65670061103233
H            2.14514888848107        1.63502455909579       -3.40098582909299
H            0.00633456850501        2.41242334659718       -4.38049552642029
H           -2.13627659723778        1.64107205321107       -3.40467387382684
H           -1.08140728038106       -2.33532270786363       -1.65794053909297
H           -2.02713131902549       -4.44682903448623       -0.81459382980804
H           -5.34837037937857       -4.77071790325538        0.85546721365105
H           -3.69934133718319       -5.24426947920694        1.27945272493481
H           -4.33173702464661       -5.62019787972013       -0.31788075962972
H           -5.51718678161407       -2.41914295551334        0.60077884551354
H           -6.44244199866680        0.16063850017206        0.56314619889992
H           -7.56579938303789        3.34381309493349       -0.41649320989404
H           -7.79139032048762        2.09228313653107        0.81258294819634
H           -6.83480281675184        3.53417354723600        1.17193871470121
H           -4.97442451800687        3.93667669586993       -0.79903717147158
H           -2.88669221746004        2.90414154222462       -1.58289360046050
H            2.03692605429976       -1.41068107668697        2.14270087755577
H            3.99581659613974       -0.47021750879246        3.33663770556589
H            4.44735953301918        1.95747062962892        3.22402881148241
H            2.96172238239350        3.42229966057266        1.91005648656324
H            1.05658375524690        2.47873189523285        0.68979737829885
H           -1.05785041814257        2.47944354027358        0.68736593708526
H           -2.96343111462596        3.42460885954189        1.90566996472328
H           -4.45097560909194        1.96121260301020        3.21905906997156
H           -4.00093169986908       -0.46671969923573        3.33302927551981
H           -2.04167887862936       -1.40881142696835        2.14097412958518
