  87
       -129.85803577
 C          7.0263149972        2.8744088379        0.3970270877
 C          5.8023756224        2.1626366395       -0.0913445393
 C          4.7900915596        2.8918852243       -0.7212074223
 C          3.6267351079        2.2919583051       -1.1728860473
 C          3.4888677390        0.9245952213       -0.9928652822
 C          4.5015051987        0.1672261482       -0.3526400196
 C          5.6552704471        0.7939288361        0.0946984671
 C          4.0286574985       -1.1862168170       -0.3048065624
 C          4.5679967477       -2.3736858077        0.1647233584
 C          3.8514418104       -3.5550606654        0.0063769332
 C          4.3936538505       -4.8528200609        0.5194250752
 C          2.6153526408       -3.5388544531       -0.6486082240
 C          2.0528336327       -2.3677053724       -1.1194918707
 C          2.7465816053       -1.1847951916       -0.9123469978
 N          2.4306701287        0.0963525351       -1.3038855886
 C          1.2124354352        0.5039540150       -1.8494067975
 C          1.2065814016        1.2612849160       -3.0058539613
 C          0.0047206178        1.6610055713       -3.5893239677
 C         -1.1983114265        1.2622612324       -3.0082018317
 C         -1.2072054580        0.5049341356       -1.8515522437
 N         -2.4268379287        0.0998330807       -1.3078967289
 C         -2.7460041721       -1.1794657754       -0.9129717571
 C         -2.0537421978       -2.3643930971       -1.1134828934
 C         -2.6198470318       -3.5327990295       -0.6400702336
 C         -3.8581403016       -3.5443846208        0.0112719599
 C         -4.4075921896       -4.8410584820        0.5195616217
 C         -4.5726766243       -2.3612101995        0.1636675519
 C         -4.0295688402       -1.1762325110       -0.3080780743
 C         -4.4986453156        0.1782111416       -0.3591903676
 C         -5.6505539689        0.8094522729        0.0869726442
 C         -5.7925452474        2.1784964943       -0.1002131054
 C         -7.0158827066        2.8951960601        0.3824853870
 C         -4.7771375017        2.9038014174       -0.7296719597
 C         -3.6156797240        2.2993230702       -1.1803210128
 C         -3.4830445266        0.9316477538       -0.9992647730
 C          0.0018406920        0.1010208348       -1.2141840402
 P          0.0020660842       -0.3866463799        0.5539631082
 O          0.0108950191       -1.8361549429        0.8035460265
 C          1.4099005033        0.4436373321        1.3497456562
 C          2.2455299034       -0.3679069946        2.1127543508
 C          3.3189452594        0.1733440742        2.7896397259
 C          3.5668989994        1.5364576043        2.7205625789
 C          2.7368872201        2.3497103511        1.9634364245
 C          1.6699325098        1.8098860280        1.2743357543
 C         -1.4144782524        0.4249608692        1.3537512175
 C         -1.6865577782        1.7895681555        1.2922193416
 C         -2.7601572067        2.3125572411        1.9839244686
 C         -3.5850038175        1.4842840318        2.7303962831
 C         -3.3243550845        0.1229879625        2.7866562767
 C         -2.2445059208       -0.4015518612        2.1069480190
 H          7.7705049022        2.1695812726        0.7584890311
 H          6.7664417782        3.5503863941        1.2117807482
 H          7.4663051498        3.4722226791       -0.3999348593
 H          4.9174000914        3.9568975367       -0.8481462085
 H          2.8478133271        2.8793167641       -1.6340193556
 H          6.4263983537        0.2232000064        0.5899669783
 H          5.5357052514       -2.3802220806        0.6441708989
 H          5.3980695229       -4.7294655696        0.9164077425
 H          4.4187164842       -5.5977689960       -0.2749839738
 H          3.7519768678       -5.2379185168        1.3117525404
 H          2.0856306290       -4.4694193818       -0.7842077187
 H          1.1088844376       -2.3753175159       -1.6385039208
 H          2.1451088523        1.5015154148       -3.4837148883
 H          0.0058714149        2.2350962313       -4.5009866345
 H         -2.1356901942        1.5021445414       -3.4884190446
 H         -1.1078347679       -2.3757340872       -1.6288079129
 H         -2.0911426224       -4.4647740908       -0.7698016281
 H         -5.3678866444       -4.6962725128        1.0074466782
 H         -3.7168613206       -5.2881585974        1.2332972614
 H         -4.5360676900       -5.5470164164       -0.3006493000
 H         -5.5411402341       -2.3638870373        0.6416356156
 H         -6.4239562517        0.2418378008        0.5822462378
 H         -7.4844800797        3.4439856703       -0.4336036830
 H         -7.7399018564        2.1980481273        0.7959328623
 H         -6.7489578178        3.6165568683        1.1546382779
 H         -4.9005742033        3.9691970278       -0.8573687806
 H         -2.8339719297        2.8836552483       -1.6406390497
 H          2.0322415582       -1.4263923864        2.1554710040
 H          3.9656605896       -0.4652861188        3.3739946812
 H          4.4055755657        1.9638644286        3.2498810821
 H          2.9321253907        3.4108531562        1.9021553642
 H          1.0510605094        2.4472960059        0.6604202127
 H         -1.0714976104        2.4395169849        0.6878764859
 H         -2.9641065584        3.3726463148        1.9337079118
 H         -4.4282747368        1.8988914139        3.2625332893
 H         -3.9656555335       -0.5274631053        3.3638269628
 H         -2.0214650913       -1.4583374609        2.1403173464
