  61
        -95.41644988
 C         -4.8706883224       -2.8824172997       -2.0323065203
 C         -4.6711746397       -1.5024061986       -1.8765110234
 C         -3.4512734678       -1.0290736833       -1.4849309987
 C         -2.3841091052       -1.9384881366       -1.2084157842
 C         -1.0993957889       -1.5640766474       -0.7665002209
 C         -0.0109740252       -2.4745714934       -0.9437373189
 C          1.2804444029       -2.1093087200       -0.7447731352
 C          1.5988221013       -0.7892585234       -0.3208703484
 N          2.9191231059       -0.4046962449       -0.1280704593
 C          3.4798279634        0.7858610625       -0.5465621622
 C          2.9150664156        1.8165659997       -1.2848730150
 C          3.7114299694        2.8999564778       -1.6035538404
 C          5.0465295091        2.9592899614       -1.2071104747
 C          5.6262681814        1.9219863952       -0.5006001398
 C          4.8460859151        0.8230950734       -0.1713705207
 C          5.1135220507       -0.4129239633        0.5079893999
 C          6.2451296771       -0.9478274657        1.1058120379
 C          6.1495715577       -2.1834444604        1.7186885385
 C          4.9388460586       -2.8730652451        1.7583193836
 C          3.7982548369       -2.3610603984        1.1687116982
 C          3.8949116948       -1.1377963248        0.5181515232
 C          0.5523447973        0.0949706564       -0.0339728748
 C         -0.7617034191       -0.2753894949       -0.1956503063
 N         -1.7627569027        0.5790001858        0.2748587935
 C         -2.7586668756        0.2254781022        1.1648589967
 C         -3.0077237242       -1.0009466165        1.7642501073
 C         -4.0793186498       -1.0854965214        2.6321043077
 C         -4.8781314981        0.0213797354        2.9119945288
 C         -4.6179233906        1.2515700607        2.3377752033
 C         -3.5487408318        1.3607673683        1.4609608556
 C         -2.9880989367        2.4533111820        0.7137779188
 C         -3.3237378038        3.7921149105        0.5770850844
 C         -2.5672453594        4.5825728308       -0.2683415697
 C         -1.5000139512        4.0479668518       -0.9874019979
 C         -1.1474709277        2.7174732831       -0.8676635393
 C         -1.8836903924        1.9242457925        0.0018128943
 N         -2.6039521267       -3.2696258472       -1.4282683581
 C         -3.7693838726       -3.7046728689       -1.8122325767
 H         -5.8247215353       -3.2913971752       -2.3184381200
 H         -5.4779762067       -0.8156086731       -2.0912971656
 H         -3.2651298187        0.0317183675       -1.4611582722
 H         -0.2621564751       -3.4631806524       -1.2931468700
 H          2.0851358224       -2.7973496007       -0.9528880403
 H          1.8904926187        1.7662064401       -1.6165817571
 H          3.2922143574        3.7148072918       -2.1744641765
 H          5.6364970836        3.8244055878       -1.4696333177
 H          6.6665921154        1.9595521769       -0.2154067074
 H          7.1780682681       -0.4050162988        1.0949187281
 H          7.0198416498       -2.6179904666        2.1868817241
 H          4.8887293859       -3.8242340244        2.2664404634
 H          2.8598537641       -2.8896979745        1.2299013291
 H          0.7813287995        1.0517732572        0.4128128439
 H         -2.3894472736       -1.8593841705        1.5556897500
 H         -4.3005244852       -2.0295572030        3.1071133421
 H         -5.7087647515       -0.0860252933        3.5936477667
 H         -5.2297628560        2.1111600664        2.5663596445
 H         -4.1632935549        4.2035958568        1.1164444420
 H         -2.8111238828        5.6276729801       -0.3855076744
 H         -0.9400394167        4.6854109900       -1.6550637104
 H         -0.3351315871        2.3042138832       -1.4443903143
 H         -3.8480895216       -4.7782102071       -1.9387360220
