  45
        -74.35571146
 O         -3.9023117052        1.7302579387        1.6954143588
 S         -3.5402841022        1.4258347447        0.3334650272
 O         -3.8373397532        2.4110283125       -0.6764905858
 C         -4.2869157374       -0.1440258719       -0.1289393244
 C         -4.9914131157       -0.8749886923        0.8068443964
 C         -5.5294269782       -2.0990329765        0.4429156509
 C         -5.3508679760       -2.5747189404       -0.8464157585
 C         -4.6394312071       -1.8324972544       -1.7772440041
 C         -4.1007402438       -0.6087025664       -1.4170975287
 C         -1.7850636913        1.0447939179        0.2620237534
 C         -1.2506364213        0.1867373959        1.2056994335
 C          0.0891767767       -0.1434733993        1.1459406890
 C          0.8918679312        0.3778350623        0.1288214375
 N          2.2442439224        0.0437257343        0.0627758967
 C          2.7702173362       -1.2346259236        0.1465953249
 C          2.1190304513       -2.4545707108        0.2539148122
 C          2.8933903326       -3.5994636971        0.2825606516
 C          4.2820547080       -3.5410731525        0.1965610155
 C          4.9338395710       -2.3315211061        0.0610064447
 C          4.1766266610       -1.1681028676        0.0299327416
 C          4.5110327528        0.2211731150       -0.1226744130
 C          5.7139503405        0.9016284417       -0.2572024584
 C          5.6867478647        2.2782287015       -0.3585577334
 C          4.4822613375        2.9755260958       -0.3084508725
 C          3.2727319066        2.3195872896       -0.1750917535
 C          3.2920357702        0.9346456801       -0.1024836081
 C          0.3359271594        1.2369971134       -0.8202810713
 C         -1.0031979522        1.5703844264       -0.7487364846
 H         -5.1135586681       -0.4676796845        1.7985834278
 H         -6.0869702553       -2.6783753342        1.1633839697
 H         -5.7708774861       -3.5283100287       -1.1296587021
 H         -4.5062139949       -2.2059040989       -2.7813014578
 H         -3.5515992766       -0.0037047280       -2.1220332601
 H         -1.8848556047       -0.1937803673        1.9910865896
 H          0.5281999096       -0.7865505421        1.8932777046
 H          1.0419073727       -2.5148879781        0.2997840131
 H          2.4090691917       -4.5606590259        0.3692936820
 H          4.8517506175       -4.4576341033        0.2258432722
 H          6.0087331517       -2.2858449004       -0.0251194073
 H          6.6480664875        0.3612203697       -0.2757348503
 H          6.6100595372        2.8270592392       -0.4668060050
 H          4.4923314743        4.0534355300       -0.3708136497
 H          2.3479537020        2.8731658634       -0.1147537621
 H          0.9538703248        1.6227015587       -1.6166456582
 H         -1.4594074704        2.2362027151       -1.4646210640
