  62
  -87.7051750100000       0.150709365284533      !
 C          1.4749339327        0.0951888517       -4.7484553590
 C          0.7236036106        0.0666571308       -3.4528711425
 C          1.4124703498        0.0553390498       -2.2561839131
 C          0.7150631336        0.0553484191       -1.0546245546
 P          1.2589989344       -0.1890494024        0.6374777797
 C          1.2574274185       -1.9799903939        0.8907691543
 C          0.1703750543       -2.5901440142        1.5220504865
 C          0.0476684360       -3.9640583453        1.5245463320
 C          0.9974418356       -4.7495662874        0.8867374280
 C          2.0726101599       -4.1471723217        0.2412979212
 C          2.2006881006       -2.7762763721        0.2291433589
 C          2.9947442247        0.3152997523        0.7013585757
 C          3.3572408025        1.5055168388        0.0632788590
 C          4.6408225380        1.9939165343        0.1895683700
 C          5.5631648803        1.3315617137        0.9887307065
 C          5.1891192611        0.1820785851        1.6727504054
 C          3.9076482283       -0.3138267965        1.5514638206
 C         -0.7028162265       -0.0139039102       -1.0597795211
 P         -1.2570916461        0.1808811084        0.6354697534
 C         -2.9856016740       -0.3479016237        0.6804913514
 C         -3.9078864662        0.2397696668        1.5500050644
 C         -5.1817140296       -0.2791676245        1.6546819003
 C         -5.5383874512       -1.4116861358        0.9341412038
 C         -4.6062519058       -2.0338879424        0.1143796749
 C         -3.3302939509       -1.5222875180        0.0042925964
 C         -1.2748713282        1.9636538633        0.9362388326
 C         -0.1842631703        2.5701883494        1.5655573723
 C         -0.0773020695        3.9447925459        1.6025457636
 C         -1.0468504706        4.7356336721        1.0021065178
 C         -2.1255439690        4.1375960162        0.3580903428
 C         -2.2379616120        2.7661914291        0.3109909006
 C         -1.3933955278        0.0285664280       -2.2648316564
 C         -0.6977545048        0.0604449433       -3.4570332556
 C         -1.4416145370        0.0818514087       -4.7571099510
 H          1.2359285971        0.9965122997       -5.3134652122
 H          1.2114265606       -0.7621317919       -5.3675336488
 H          2.5472292523        0.0754375362       -4.5696617887
 H          2.4947443686        0.0660766520       -2.2532545270
 H         -0.5602053760       -1.9734841116        2.0343950046
 H         -0.7897628009       -4.4283610755        2.0254486126
 H          0.9001796889       -5.8246738440        0.8862447056
 H          2.8076444675       -4.7585466736       -0.2619592930
 H          3.0266080255       -2.3040612917       -0.2851504205
 H          2.6230990052        2.0232387299       -0.5403141559
 H          4.9260576568        2.9000401030       -0.3255935871
 H          6.5650981769        1.7200707691        1.0934865694
 H          5.9025277492       -0.3220870211        2.3088409239
 H          3.6079193175       -1.2047110885        2.0871199334
 H         -3.6210956606        1.1161259934        2.1155552255
 H         -5.9023413436        0.1928200856        2.3068405179
 H         -6.5341791843       -1.8187719290        1.0262910734
 H         -4.8777730142       -2.9271948485       -0.4296909153
 H         -2.5884664908       -2.0090204777       -0.6154666527
 H          0.5619738388        1.9490151104        2.0487712069
 H          0.7632000160        4.4056686446        2.1015369326
 H         -0.9623344760        5.8114884481        1.0292090438
 H         -2.8761626446        4.7533833592       -0.1166889705
 H         -3.0665191979        2.2984867331       -0.2036842111
 H         -2.4757655836        0.0178292972       -2.2681315992
 H         -2.5149414258        0.0872287511       -4.5839059645
 H         -1.1933280734       -0.7927964602       -5.3586821767
 H         -1.1801568634        0.9666937483       -5.3371849493
  62
  -87.7051725300000       0.150314373718189      !
 C          1.4449934935        0.0402184116       -4.7606710524
 C          0.6999576173        0.0293535607       -3.4610925430
 C          1.3943472984        0.0195091405       -2.2678580940
 C          0.7028024336        0.0334928700       -1.0623517691
 P          1.2513913763       -0.2135783608        0.6277377405
 C          1.2790683985       -2.0045530942        0.8720928805
 C          0.1690030507       -2.6416353158        1.4341245798
 C          0.0745313693       -4.0174468675        1.4211537415
 C          1.0772464759       -4.7796183905        0.8383684347
 C          2.1761336804       -4.1509121438        0.2611128081
 C          2.2758490627       -2.7778541688        0.2624562579
 C          2.9739571654        0.3272784022        0.7107821184
 C          3.3282039257        1.5104866922        0.0554159676
 C          4.5976438698        2.0288612463        0.2037815623
 C          5.5121210317        1.4052352305        1.0421847487
 C          5.1444219080        0.2635498919        1.7423676863
 C          3.8776553913       -0.2629571937        1.5983819928
 C         -0.7157199150       -0.0254668226       -1.0612768494
 P         -1.2613992875        0.1717522158        0.6361298480
 C         -2.9996568258       -0.3263220511        0.6836838484
 C         -3.9084514454        0.2783212906        1.5555973099
 C         -5.1915378819       -0.2166753464        1.6636085283
 C         -5.5714028813       -1.3416978815        0.9432419353
 C         -4.6534741023       -1.9806004263        0.1203782716
 C         -3.3681907395       -1.4931582297        0.0073160454
 C         -1.2523115113        1.9549346322        0.9391607341
 C         -0.1591062390        2.5435226923        1.5800508950
 C         -0.0319186352        3.9163906692        1.6209216930
 C         -0.9836589083        4.7226799232        1.0130201574
 C         -2.0651191542        4.1422797002        0.3580002015
 C         -2.1975991349        2.7727064343        0.3074139474
 C         -1.4115202778        0.0175274150       -2.2629413892
 C         -0.7214687305        0.0367829203       -3.4587489579
 C         -1.4718555336        0.0583575022       -4.7551129100
 H          2.5179210442        0.0118340798       -4.5871619350
 H          1.2113134728        0.9389490208       -5.3318256205
 H          1.1701966650       -0.8197671256       -5.3710607632
 H          2.4767236834        0.0196006149       -2.2698963752
 H         -0.6035304168       -2.0436564413        1.9052774754
 H         -0.7821107368       -4.5018527697        1.8675676699
 H          1.0033397358       -5.8564844986        0.8276093933
 H          2.9535846763       -4.7440027064       -0.1991857916
 H          3.1211592998       -2.2869420977       -0.2005245613
 H          2.6000041209        1.9988262198       -0.5788028753
 H          4.8773382285        2.9290575414       -0.3244995593
 H          6.5020180856        1.8184527295        1.1650415194
 H          5.8506244653       -0.2097009241        2.4093087742
 H          3.5813268692       -1.1460221458        2.1485353704
 H         -3.6035951647        1.1489260760        2.1207091864
 H         -5.9012572724        0.2682431823        2.3182606063
 H         -6.5745992570       -1.7294801548        1.0372521412
 H         -4.9432534873       -2.8681686819       -0.4236990910
 H         -2.6374109330       -1.9937636604       -0.6144234760
 H          0.5719886347        1.9105769765        2.0704130011
 H          0.8107618595        4.3635428599        2.1283803009
 H         -0.8831583163        5.7970338350        1.0428895210
 H         -2.8019754103        4.7701177079       -0.1222919546
 H         -3.0286310981        2.3183328439       -0.2151918021
 H         -2.4939227359        0.0166623765       -2.2611772765
 H         -2.5442222664        0.0692868408       -4.5759116650
 H         -1.2311113403       -0.8190352443       -5.3556512100
 H         -1.2092204261        0.9405802649       -5.3386698187
  62
  -87.7051533100000       0.147288083527110      !
 C          1.4482243836        0.0643551651       -4.7474432959
 C          0.7012928263        0.0428665941       -3.4491400874
 C          1.3942420962        0.0326874254       -2.2549006102
 C          0.7009376997        0.0367998799       -1.0507980509
 P          1.2499356610       -0.2154868549        0.6384320108
 C          1.2786406268       -2.0085944252        0.8649067927
 C          0.1659244943       -2.6517583322        1.4154922730
 C          0.0693300829       -4.0269632557        1.3835756235
 C          1.0727412200       -4.7828665481        0.7934524286
 C          2.1747927963       -4.1482198121        0.2291343509
 C          2.2764110067       -2.7751247079        0.2489869882
 C          2.9710875366        0.3279367779        0.7253974376
 C          3.3225089711        1.5173446034        0.0797580248
 C          4.5908798211        2.0369532956        0.2319037952
 C          5.5072090104        1.4076006750        1.0640933959
 C          5.1421973210        0.2593320365        1.7547817946
 C          3.8761968216       -0.2682793324        1.6073900696
 C         -0.7172399227       -0.0317978768       -1.0508639266
 P         -1.2636846726        0.1681565215        0.6462886925
 C         -3.0012471949       -0.3306817869        0.6992432901
 C         -3.9085898710        0.2788528276        1.5691732349
 C         -5.1916890527       -0.2150366198        1.6813196467
 C         -5.5725200081       -1.3440043715        0.9677485091
 C         -4.6555199849       -1.9882195545        0.1479485220
 C         -3.3704312175       -1.5014471124        0.0301799711
 C         -1.2520647556        1.9539908159        0.9313265938
 C         -0.1473449268        2.5493843645        1.5467605933
 C         -0.0116373210        3.9219914145        1.5582574807
 C         -0.9674169955        4.7218013084        0.9481045147
 C         -2.0625107944        4.1348617086        0.3216669693
 C         -2.2024191902        2.7653673265        0.2983656418
 C         -1.4116017772        0.0105403696       -2.2535217247
 C         -0.7199927587        0.0398538479       -3.4482577664
 C         -1.4685300682        0.0615713335       -4.7457225755
 H          2.5210885209        0.0447200456       -4.5720981556
 H          1.2078262502        0.9625656488       -5.3166590233
 H          1.1817373483       -0.7964123782       -5.3604435779
 H          2.4765916544        0.0408639303       -2.2554908786
 H         -0.6068288867       -2.0587568138        1.8924876784
 H         -0.7893128713       -4.5163080357        1.8206194258
 H          0.9963132253       -5.8593108517        0.7673118167
 H          2.9531355778       -4.7355921667       -0.2369563474
 H          3.1239755322       -2.2801251103       -0.2055697512
 H          2.5922080595        2.0095893349       -0.5491260025
 H          4.8687524402        2.9420507967       -0.2890288248
 H          6.4965116143        1.8214746487        1.1896410907
 H          5.8494569133       -0.2177281532        2.4179863085
 H          3.5814752981       -1.1562010692        2.1510578735
 H         -3.6028107581        1.1521952697        2.1293666834
 H         -5.9007398651        0.2739935705        2.3337183284
 H         -6.5755911007       -1.7312896916        1.0657616980
 H         -4.9458563285       -2.8794453048       -0.3899536162
 H         -2.6400506473       -2.0054529250       -0.5894942192
 H          0.5869966201        1.9221907618        2.0402280678
 H          0.8412384337        4.3740186779        2.0442206171
 H         -0.8598069095        5.7959292770        0.9541784562
 H         -2.8036313362        4.7575080840       -0.1590347761
 H         -3.0429995758        2.3059811960       -0.2041884252
 H         -2.4939560495        0.0016850467       -2.2535810877
 H         -1.2277274707       -0.8162744137       -5.3457568303
 H         -1.2039473785        0.9431997457       -5.3291762594
 H         -2.5412024799        0.0738454716       -4.5685246425
  62
  -87.7051324700000       0.144075524870647      !
 C          1.5124205634        0.0730883877       -4.7480479321
 C          0.7545413133        0.0689428272       -3.4558275514
 C          1.4375352181        0.0638451830       -2.2560645050
 C          0.7349556821        0.0819967124       -1.0570776235
 P          1.2673106814       -0.1653724549        0.6384896620
 C          1.2282283206       -1.9563923612        0.8917041169
 C          0.1287857569       -2.5442939387        1.5230665347
 C         -0.0288009850       -3.9146075621        1.5158523023
 C          0.8992129290       -4.7192054840        0.8702999845
 C          1.9889557793       -4.1394494641        0.2281092439
 C          2.1507033985       -2.7721813952        0.2243167819
 C          3.0149873551        0.2976396225        0.7050176046
 C          3.4106943719        1.4757356062        0.0645959466
 C          4.7075661171        1.9282191757        0.1905496965
 C          5.6105374780        1.2422895543        0.9917814145
 C          5.2040419409        0.1056546942        1.6786250360
 C          3.9093007996       -0.3545348600        1.5573814107
 C         -0.6835790844        0.0228671076       -1.0696363772
 P         -1.2452748881        0.2180508751        0.6225164294
 C         -2.9566440932       -0.3576081464        0.6873781443
 C         -3.8689773538        0.1821185848        1.5982650498
 C         -5.1218777883       -0.3790830088        1.7318620651
 C         -5.4663165194       -1.5064005572        0.9973772737
 C         -4.5424868565       -2.0802138939        0.1337940973
 C         -3.2868921431       -1.5269445404       -0.0045814182
 C         -1.3021642309        1.9999667452        0.9197247111
 C         -0.2006312183        2.6380354621        1.4968941169
 C         -0.1341703360        4.0151198304        1.5335061469
 C         -1.1561429707        4.7771960873        0.9848126018
 C         -2.2453295392        4.1477922534        0.3903419618
 C         -2.3177627661        2.7737176632        0.3430147369
 C         -1.3682681654        0.0619162069       -2.2778624911
 C         -0.6668427295        0.0763661102       -3.4671912714
 C         -1.4040872216        0.0907189978       -4.7709962168
 H          1.2458869618       -0.7918845874       -5.3549035379
 H          2.5835873164        0.0485417509       -4.5636045560
 H          1.2823704687        0.9670218259       -5.3280346231
 H          2.5198867603        0.0638853883       -2.2483251977
 H         -0.5831793206       -1.9143344187        2.0448195865
 H         -0.8766926680       -4.3607984682        2.0157058974
 H          0.7746777827       -5.7914831922        0.8620105130
 H          2.7082629153       -4.7658329689       -0.2801407455
 H          2.9871391047       -2.3175169317       -0.2893925164
 H          2.6921725835        2.0116434718       -0.5418947336
 H          5.0184502891        2.8246464517       -0.3266622204
 H          6.6227307431        1.6031102049        1.0966241343
 H          5.9020890504       -0.4157173759        2.3177140812
 H          3.5837420523       -1.2344575873        2.0958412422
 H         -3.5905467616        1.0541160216        2.1748839743
 H         -5.8350447485        0.0551206806        2.4177225445
 H         -6.4452234502       -1.9471768056        1.1122064830
 H         -4.8038556788       -2.9691996937       -0.4221538399
 H         -2.5506190881       -1.9778523292       -0.6569562621
 H          0.5877635780        2.0384037036        1.9388778796
 H          0.7151959144        4.5008115152        1.9922503282
 H         -1.1042706213        5.8550533647        1.0132904194
 H         -3.0369628170        4.7411789526       -0.0446587809
 H         -3.1561327100        2.2825550858       -0.1321754191
 H         -2.4506313788        0.0608105026       -2.2860521187
 H         -2.4781590663        0.1050077603       -4.6031753608
 H         -1.1587991302       -0.7911188162       -5.3631257675
 H         -1.1338166258        0.9682214869       -5.3580220870
  62
  -87.7051226000000       0.142578575858089      !
 C          0.8158643246       -1.1100776992       -4.7846634165
 C          0.4097252318       -0.5042302916       -3.4762038661
 C          0.7517627780       -1.1261867005       -2.2924768148
 C          0.3591087590       -0.5727975899       -1.0789373762
 P          0.8289164714       -0.9594715341        0.6082691147
 C          1.2135229433       -2.7239771827        0.6581104364
 C          2.1548652615       -3.2371334480        1.5547084653
 C          2.3199206277       -4.6014156551        1.6734211448
 C          1.5229023026       -5.4699388809        0.9388590113
 C          0.5463447690       -4.9649557716        0.0904901351
 C          0.3735489711       -3.6023910884       -0.0333929179
 C          2.3877383718       -0.0960163019        0.9063103591
 C          2.3720799783        1.1698123222        1.4995290017
 C          3.5175444263        1.9366482800        1.5347822745
 C          4.6921982153        1.4617651087        0.9679208926
 C          4.7089648375        0.2115068445        0.3575411735
 C          3.5692738058       -0.5593217706        0.3120719789
 C         -0.3229266384        0.6721794947       -1.0580208420
 P         -0.7895860020        0.9999728768        0.6434580122
 C         -2.2967858641        0.0377974136        0.9242447582
 C         -3.4793957131        0.3898868540        0.2627916665
 C         -4.5668072625       -0.4542820185        0.3020472208
 C         -4.4922757494       -1.6692249589        0.9755990515
 C         -3.3158990632       -2.0323501568        1.6155114639
 C         -2.2237336917       -1.1901141830        1.5863828791
 C         -1.3042308312        2.7343121864        0.7090828841
 C         -2.3264724945        3.1617679516        1.5597166962
 C         -2.6070878971        4.5074170696        1.6760268477
 C         -1.8476659578        5.4436314291        0.9863301055
 C         -0.7914944095        5.0265474659        0.1874521542
 C         -0.5033760574        3.6830681833        0.0662955236
 C         -0.6959777331        1.2769908223       -2.2511722722
 C         -0.3315105371        0.7084558140       -3.4559809977
 C         -0.7085904555        1.3762215652       -4.7427686705
 H         -0.0595793230       -1.3453195367       -5.3902442732
 H          1.3799434618       -2.0255784903       -4.6239712830
 H          1.4352109719       -0.4174246303       -5.3543569852
 H          1.3097566456       -2.0535468096       -2.3072386406
 H          2.7655735815       -2.5550214008        2.1310366347
 H          3.0661850733       -4.9959964405        2.3479125111
 H          1.6497356928       -6.5372044947        1.0423212572
 H         -0.0874264069       -5.6412912632       -0.4650530021
 H         -0.3978726646       -3.1969278985       -0.6748922112
 H          1.4559484140        1.5301216305        1.9546413263
 H          3.4999716216        2.9087428168        2.0062517267
 H          5.5889051624        2.0621279900        0.9949223977
 H          5.6213825721       -0.1544480160       -0.0915330015
 H          3.5761526959       -1.5248924790       -0.1753448304
 H         -3.5284876229        1.3278466367       -0.2740483289
 H         -5.4810129182       -0.1746698810       -0.2019270361
 H         -5.3463600770       -2.3291881500        0.9959232816
 H         -3.2536121502       -2.9757082685        2.1388773212
 H         -1.3092992214       -1.4612685963        2.1023504535
 H         -2.9093287120        2.4283084977        2.1005063160
 H         -3.4167571560        4.8343652717        2.3125316718
 H         -2.0670565388        6.4960824106        1.0864937606
 H         -0.1872742544        5.7564779522       -0.3320499273
 H          0.3291432183        3.3464871113       -0.5378727130
 H         -1.2544512356        2.2040529612       -2.2367191414
 H          0.1808269070        1.6492123148       -5.3111342365
 H         -1.2849907769        2.2779624777       -4.5512364401
 H         -1.3057586872        0.7091962196       -5.3640873537
  62
  -87.7050945000000       0.138401375570721      !
 C          1.5223660761        0.1039603673       -4.7544102180
 C          0.7632222670        0.0912505724       -3.4630488891
 C          1.4450881663        0.0728233991       -2.2621539121
 C          0.7414521956        0.0842522153       -1.0646954441
 P          1.2721171387       -0.1532908918        0.6332115636
 C          1.2154998713       -1.9416110485        0.9071012171
 C          0.1331005636       -2.5082859395        1.5843700558
 C         -0.0354861015       -3.8773358665        1.6064552799
 C          0.8634665459       -4.7004179832        0.9433673981
 C          1.9352721857       -4.1415315232        0.2547990319
 C          2.1085916906       -2.7757254166        0.2237592060
 C          3.0274490825        0.2858152498        0.6883040940
 C          3.4347849600        1.4584630711        0.0451610938
 C          4.7387757691        1.8928182568        0.1609884930
 C          5.6381434517        1.1945594483        0.9555553624
 C          5.2209783704        0.0636337376        1.6452539005
 C          3.9191425879       -0.3788040557        1.5335056416
 C         -0.6770622589        0.0302381537       -1.0776361145
 P         -1.2404325771        0.2242338558        0.6142421253
 C         -2.9444931550       -0.3709489481        0.6775981561
 C         -3.8611430279        0.1514038444        1.5945085771
 C         -5.1085243050       -0.4228243832        1.7237044601
 C         -5.4429608243       -1.5463312902        0.9786764322
 C         -4.5141241726       -2.1037573699        0.1096710671
 C         -3.2639665382       -1.5374703048       -0.0243193712
 C         -1.3162388738        2.0024484224        0.9232160064
 C         -0.2191253359        2.6491812969        1.4998223051
 C         -0.1676715385        4.0263568173        1.5450671874
 C         -1.1998279216        4.7809607540        1.0045674777
 C         -2.2839741801        4.1434395725        0.4095849111
 C         -2.3421735129        2.7691439828        0.3542258537
 C         -1.3605628855        0.0825200759       -2.2870691183
 C         -0.6580593833        0.1055357536       -3.4751046261
 C         -1.3939030951        0.1373781131       -4.7795909318
 H          2.5934095330        0.0804181478       -4.5688485698
 H          1.2913952201        1.0005328821       -5.3300074118
 H          1.2582750700       -0.7583645702       -5.3663499444
 H          2.5274027972        0.0684760334       -2.2539183232
 H         -0.5554769315       -1.8630993387        2.1185174152
 H         -0.8696341494       -4.3078452915        2.1418385155
 H          0.7296596954       -5.7715150702        0.9575198833
 H          2.6319543217       -4.7825235585       -0.2666204664
 H          2.9316344400       -2.3360047905       -0.3237991483
 H          2.7193495829        2.0047149145       -0.5557419698
 H          5.0582423979        2.7843554798       -0.3594452447
 H          6.6562286492        1.5408548757        1.0521432922
 H          5.9164580887       -0.4678853142        2.2788048706
 H          3.5860395488       -1.2542511555        2.0746496301
 H         -3.5903689741        1.0206363201        2.1789597749
 H         -5.8248180360       -0.0027829317        2.4150456268
 H         -6.4176356745       -1.9973339163        1.0899215062
 H         -4.7675723529       -2.9899138263       -0.4544059137
 H         -2.5246222972       -1.9740906449       -0.6827326818
 H          0.5772837393        2.0549733341        1.9347744118
 H          0.6771143764        4.5185610406        2.0055059223
 H         -1.1597917483        5.8591126386        1.0401230703
 H         -3.0831557735        4.7310675214       -0.0194958949
 H         -3.1766361905        2.2718049599       -0.1215519012
 H         -2.4429185924        0.0856974151       -2.2958082201
 H         -1.1151155525        1.0174641779       -5.3587731885
 H         -2.4680256534        0.1598169351       -4.6127095822
 H         -1.1556497635       -0.7416072526       -5.3789146631
  62
  -87.7050105200000       0.126632701170711      !
 C          1.5413778877        0.1825409206       -4.7449408961
 C          0.7786064432        0.1400916636       -3.4563704380
 C          1.4575295109        0.1088681939       -2.2538319072
 C          0.7507784808        0.1004389130       -1.0586411590
 P          1.2773259073       -0.1428164973        0.6398814325
 C          1.1971111375       -1.9305499283        0.9175232939
 C          0.1257261952       -2.4771974277        1.6276093311
 C         -0.0635886705       -3.8434028416        1.6609933411
 C          0.8036376471       -4.6831004738        0.9769190200
 C          1.8642043279       -4.1440383826        0.2560545103
 C          2.0575420084       -2.7810075023        0.2135193184
 C          3.0401348843        0.2688425541        0.6885081580
 C          3.4569090225        1.4474283420        0.0623903941
 C          4.7691248592        1.8590990709        0.1678407174
 C          5.6684288795        1.1308487177        0.9350253121
 C          5.2429480673       -0.0065773265        1.6088138746
 C          3.9325440287       -0.4259006794        1.5080761093
 C         -0.6674262637        0.0388881914       -1.0757881248
 P         -1.2362412758        0.2314757815        0.6143757887
 C         -2.9300965877       -0.3896369603        0.6829827426
 C         -3.8498723608        0.1158647294        1.6063521325
 C         -5.0855046872       -0.4811444216        1.7441504407
 C         -5.4042823359       -1.6108011279        1.0014955770
 C         -4.4718431162       -2.1504291038        0.1250425279
 C         -3.2334524173       -1.5611163854       -0.0178731720
 C         -1.3333139660        2.0107690126        0.9081022819
 C         -0.2337375606        2.6775078588        1.4572457888
 C         -0.1969104036        4.0555857957        1.4826525465
 C         -1.2466418834        4.7912935000        0.9498789207
 C         -2.3335253300        4.1336276583        0.3821831657
 C         -2.3771929159        2.7582033402        0.3460320468
 C         -1.3481418112        0.0993910408       -2.2866345335
 C         -0.6426474419        0.1428622034       -3.4721451784
 C         -1.3751411461        0.1888565308       -4.7780465995
 H          2.6119521260        0.1611282132       -4.5566250204
 H          1.3070997721        1.0897327550       -5.3023126974
 H          1.2838295076       -0.6681485919       -5.3755460740
 H          2.5398059143        0.1112120221       -2.2429864960
 H         -0.5375972540       -1.8188737087        2.1774416454
 H         -0.8891892160       -4.2583806191        2.2212428655
 H          0.6534894391       -5.7519253576        0.9994419485
 H          2.5356676471       -4.7981511975       -0.2817104103
 H          2.8723193288       -2.3564761443       -0.3578800890
 H          2.7414916341        2.0165172690       -0.5170955522
 H          5.0953685224        2.7559258993       -0.3391028369
 H          6.6934701665        1.4584999823        1.0228463524
 H          5.9393071734       -0.5622995984        2.2202247433
 H          3.5937080353       -1.3071128319        2.0359542487
 H         -3.5908443017        0.9898836395        2.1890031139
 H         -5.8046765730       -0.0741991241        2.4404188424
 H         -6.3690424523       -2.0806085171        1.1206449848
 H         -4.7127782375       -3.0412657810       -0.4371581214
 H         -2.4908071571       -1.9840028408       -0.6816413999
 H          0.5774273267        2.0977721545        1.8848408685
 H          0.6504759362        4.5635446775        1.9205950851
 H         -1.2182434153        5.8700727687        0.9705365295
 H         -3.1473076822        4.7062665978       -0.0391609293
 H         -3.2155273053        2.2454893010       -0.1055940854
 H         -2.4304705022        0.0956967218       -2.2979167588
 H         -2.4499558671        0.1911091523       -4.6142396796
 H         -1.1211700773       -0.6737508617       -5.3943384216
 H         -1.1086885553        1.0849780452       -5.3382440343
