  62
        -87.70517501
 C          1.4749339327        0.0951888517       -4.7484553590
 C          0.7236036106        0.0666571308       -3.4528711425
 C          1.4124703498        0.0553390498       -2.2561839131
 C          0.7150631336        0.0553484191       -1.0546245546
 P          1.2589989344       -0.1890494024        0.6374777797
 C          1.2574274185       -1.9799903939        0.8907691543
 C          0.1703750543       -2.5901440142        1.5220504865
 C          0.0476684360       -3.9640583453        1.5245463320
 C          0.9974418356       -4.7495662874        0.8867374280
 C          2.0726101599       -4.1471723217        0.2412979212
 C          2.2006881006       -2.7762763721        0.2291433589
 C          2.9947442247        0.3152997523        0.7013585757
 C          3.3572408025        1.5055168388        0.0632788590
 C          4.6408225380        1.9939165343        0.1895683700
 C          5.5631648803        1.3315617137        0.9887307065
 C          5.1891192611        0.1820785851        1.6727504054
 C          3.9076482283       -0.3138267965        1.5514638206
 C         -0.7028162265       -0.0139039102       -1.0597795211
 P         -1.2570916461        0.1808811084        0.6354697534
 C         -2.9856016740       -0.3479016237        0.6804913514
 C         -3.9078864662        0.2397696668        1.5500050644
 C         -5.1817140296       -0.2791676245        1.6546819003
 C         -5.5383874512       -1.4116861358        0.9341412038
 C         -4.6062519058       -2.0338879424        0.1143796749
 C         -3.3302939509       -1.5222875180        0.0042925964
 C         -1.2748713282        1.9636538633        0.9362388326
 C         -0.1842631703        2.5701883494        1.5655573723
 C         -0.0773020695        3.9447925459        1.6025457636
 C         -1.0468504706        4.7356336721        1.0021065178
 C         -2.1255439690        4.1375960162        0.3580903428
 C         -2.2379616120        2.7661914291        0.3109909006
 C         -1.3933955278        0.0285664280       -2.2648316564
 C         -0.6977545048        0.0604449433       -3.4570332556
 C         -1.4416145370        0.0818514087       -4.7571099510
 H          1.2359285971        0.9965122997       -5.3134652122
 H          1.2114265606       -0.7621317919       -5.3675336488
 H          2.5472292523        0.0754375362       -4.5696617887
 H          2.4947443686        0.0660766520       -2.2532545270
 H         -0.5602053760       -1.9734841116        2.0343950046
 H         -0.7897628009       -4.4283610755        2.0254486126
 H          0.9001796889       -5.8246738440        0.8862447056
 H          2.8076444675       -4.7585466736       -0.2619592930
 H          3.0266080255       -2.3040612917       -0.2851504205
 H          2.6230990052        2.0232387299       -0.5403141559
 H          4.9260576568        2.9000401030       -0.3255935871
 H          6.5650981769        1.7200707691        1.0934865694
 H          5.9025277492       -0.3220870211        2.3088409239
 H          3.6079193175       -1.2047110885        2.0871199334
 H         -3.6210956606        1.1161259934        2.1155552255
 H         -5.9023413436        0.1928200856        2.3068405179
 H         -6.5341791843       -1.8187719290        1.0262910734
 H         -4.8777730142       -2.9271948485       -0.4296909153
 H         -2.5884664908       -2.0090204777       -0.6154666527
 H          0.5619738388        1.9490151104        2.0487712069
 H          0.7632000160        4.4056686446        2.1015369326
 H         -0.9623344760        5.8114884481        1.0292090438
 H         -2.8761626446        4.7533833592       -0.1166889705
 H         -3.0665191979        2.2984867331       -0.2036842111
 H         -2.4757655836        0.0178292972       -2.2681315992
 H         -2.5149414258        0.0872287511       -4.5839059645
 H         -1.1933280734       -0.7927964602       -5.3586821767
 H         -1.1801568634        0.9666937483       -5.3371849493
  62
        -87.70509450
 C          1.5223660761        0.1039603673       -4.7544102180
 C          0.7632222670        0.0912505724       -3.4630488891
 C          1.4450881663        0.0728233991       -2.2621539121
 C          0.7414521956        0.0842522153       -1.0646954441
 P          1.2721171387       -0.1532908918        0.6332115636
 C          1.2154998713       -1.9416110485        0.9071012171
 C          0.1331005636       -2.5082859395        1.5843700558
 C         -0.0354861015       -3.8773358665        1.6064552799
 C          0.8634665459       -4.7004179832        0.9433673981
 C          1.9352721857       -4.1415315232        0.2547990319
 C          2.1085916906       -2.7757254166        0.2237592060
 C          3.0274490825        0.2858152498        0.6883040940
 C          3.4347849600        1.4584630711        0.0451610938
 C          4.7387757691        1.8928182568        0.1609884930
 C          5.6381434517        1.1945594483        0.9555553624
 C          5.2209783704        0.0636337376        1.6452539005
 C          3.9191425879       -0.3788040557        1.5335056416
 C         -0.6770622589        0.0302381537       -1.0776361145
 P         -1.2404325771        0.2242338558        0.6142421253
 C         -2.9444931550       -0.3709489481        0.6775981561
 C         -3.8611430279        0.1514038444        1.5945085771
 C         -5.1085243050       -0.4228243832        1.7237044601
 C         -5.4429608243       -1.5463312902        0.9786764322
 C         -4.5141241726       -2.1037573699        0.1096710671
 C         -3.2639665382       -1.5374703048       -0.0243193712
 C         -1.3162388738        2.0024484224        0.9232160064
 C         -0.2191253359        2.6491812969        1.4998223051
 C         -0.1676715385        4.0263568173        1.5450671874
 C         -1.1998279216        4.7809607540        1.0045674777
 C         -2.2839741801        4.1434395725        0.4095849111
 C         -2.3421735129        2.7691439828        0.3542258537
 C         -1.3605628855        0.0825200759       -2.2870691183
 C         -0.6580593833        0.1055357536       -3.4751046261
 C         -1.3939030951        0.1373781131       -4.7795909318
 H          2.5934095330        0.0804181478       -4.5688485698
 H          1.2913952201        1.0005328821       -5.3300074118
 H          1.2582750700       -0.7583645702       -5.3663499444
 H          2.5274027972        0.0684760334       -2.2539183232
 H         -0.5554769315       -1.8630993387        2.1185174152
 H         -0.8696341494       -4.3078452915        2.1418385155
 H          0.7296596954       -5.7715150702        0.9575198833
 H          2.6319543217       -4.7825235585       -0.2666204664
 H          2.9316344400       -2.3360047905       -0.3237991483
 H          2.7193495829        2.0047149145       -0.5557419698
 H          5.0582423979        2.7843554798       -0.3594452447
 H          6.6562286492        1.5408548757        1.0521432922
 H          5.9164580887       -0.4678853142        2.2788048706
 H          3.5860395488       -1.2542511555        2.0746496301
 H         -3.5903689741        1.0206363201        2.1789597749
 H         -5.8248180360       -0.0027829317        2.4150456268
 H         -6.4176356745       -1.9973339163        1.0899215062
 H         -4.7675723529       -2.9899138263       -0.4544059137
 H         -2.5246222972       -1.9740906449       -0.6827326818
 H          0.5772837393        2.0549733341        1.9347744118
 H          0.6771143764        4.5185610406        2.0055059223
 H         -1.1597917483        5.8591126386        1.0401230703
 H         -3.0831557735        4.7310675214       -0.0194958949
 H         -3.1766361905        2.2718049599       -0.1215519012
 H         -2.4429185924        0.0856974151       -2.2958082201
 H         -1.1151155525        1.0174641779       -5.3587731885
 H         -2.4680256534        0.1598169351       -4.6127095822
 H         -1.1556497635       -0.7416072526       -5.3789146631
  62
        -87.70501052
 C          1.5413778877        0.1825409206       -4.7449408961
 C          0.7786064432        0.1400916636       -3.4563704380
 C          1.4575295109        0.1088681939       -2.2538319072
 C          0.7507784808        0.1004389130       -1.0586411590
 P          1.2773259073       -0.1428164973        0.6398814325
 C          1.1971111375       -1.9305499283        0.9175232939
 C          0.1257261952       -2.4771974277        1.6276093311
 C         -0.0635886705       -3.8434028416        1.6609933411
 C          0.8036376471       -4.6831004738        0.9769190200
 C          1.8642043279       -4.1440383826        0.2560545103
 C          2.0575420084       -2.7810075023        0.2135193184
 C          3.0401348843        0.2688425541        0.6885081580
 C          3.4569090225        1.4474283420        0.0623903941
 C          4.7691248592        1.8590990709        0.1678407174
 C          5.6684288795        1.1308487177        0.9350253121
 C          5.2429480673       -0.0065773265        1.6088138746
 C          3.9325440287       -0.4259006794        1.5080761093
 C         -0.6674262637        0.0388881914       -1.0757881248
 P         -1.2362412758        0.2314757815        0.6143757887
 C         -2.9300965877       -0.3896369603        0.6829827426
 C         -3.8498723608        0.1158647294        1.6063521325
 C         -5.0855046872       -0.4811444216        1.7441504407
 C         -5.4042823359       -1.6108011279        1.0014955770
 C         -4.4718431162       -2.1504291038        0.1250425279
 C         -3.2334524173       -1.5611163854       -0.0178731720
 C         -1.3333139660        2.0107690126        0.9081022819
 C         -0.2337375606        2.6775078588        1.4572457888
 C         -0.1969104036        4.0555857957        1.4826525465
 C         -1.2466418834        4.7912935000        0.9498789207
 C         -2.3335253300        4.1336276583        0.3821831657
 C         -2.3771929159        2.7582033402        0.3460320468
 C         -1.3481418112        0.0993910408       -2.2866345335
 C         -0.6426474419        0.1428622034       -3.4721451784
 C         -1.3751411461        0.1888565308       -4.7780465995
 H          2.6119521260        0.1611282132       -4.5566250204
 H          1.3070997721        1.0897327550       -5.3023126974
 H          1.2838295076       -0.6681485919       -5.3755460740
 H          2.5398059143        0.1112120221       -2.2429864960
 H         -0.5375972540       -1.8188737087        2.1774416454
 H         -0.8891892160       -4.2583806191        2.2212428655
 H          0.6534894391       -5.7519253576        0.9994419485
 H          2.5356676471       -4.7981511975       -0.2817104103
 H          2.8723193288       -2.3564761443       -0.3578800890
 H          2.7414916341        2.0165172690       -0.5170955522
 H          5.0953685224        2.7559258993       -0.3391028369
 H          6.6934701665        1.4584999823        1.0228463524
 H          5.9393071734       -0.5622995984        2.2202247433
 H          3.5937080353       -1.3071128319        2.0359542487
 H         -3.5908443017        0.9898836395        2.1890031139
 H         -5.8046765730       -0.0741991241        2.4404188424
 H         -6.3690424523       -2.0806085171        1.1206449848
 H         -4.7127782375       -3.0412657810       -0.4371581214
 H         -2.4908071571       -1.9840028408       -0.6816413999
 H          0.5774273267        2.0977721545        1.8848408685
 H          0.6504759362        4.5635446775        1.9205950851
 H         -1.2182434153        5.8700727687        0.9705365295
 H         -3.1473076822        4.7062665978       -0.0391609293
 H         -3.2155273053        2.2454893010       -0.1055940854
 H         -2.4304705022        0.0956967218       -2.2979167588
 H         -2.4499558671        0.1911091523       -4.6142396796
 H         -1.1211700773       -0.6737508617       -5.3943384216
 H         -1.1086885553        1.0849780452       -5.3382440343
