  62
  -87.3203264849000       0.344182850984321      !
 C          1.6025689982        0.3153617105       -4.7185953785
 C          0.8216176966        0.2437419977       -3.4422487858
 C          1.4830182700        0.1764640187       -2.2316900858
 C          0.7590442526        0.1332461258       -1.0471501685
 P          1.2619013996       -0.1750175755        0.6478508334
 C          1.2095852987       -1.9737094918        0.8435047516
 C          0.1186612759       -2.5736761851        1.4770081192
 C         -0.0434183821       -3.9431125307        1.4372437740
 C          0.8708066375       -4.7329924563        0.7549330760
 C          1.9513700888       -4.1403649064        0.1096246114
 C          2.1183505758       -2.7737630253        0.1403859170
 C          3.0138194635        0.2687959372        0.7520251429
 C          3.4261704174        1.4698125629        0.1670600977
 C          4.7258079875        1.9043336335        0.3239233169
 C          5.6150002515        1.1763110595        1.1030794962
 C          5.1918198879        0.0149280312        1.7361763158
 C          3.8943080203       -0.4278347371        1.5830771208
 C         -0.6587558322        0.0737837584       -1.0868412737
 P         -1.2518201699        0.1922420579        0.6018608163
 C         -2.9537103504       -0.4123898278        0.6101738434
 C         -3.8884460558        0.0660234212        1.5327864781
 C         -5.1349550254       -0.5185624175        1.6156385753
 C         -5.4510248832       -1.6103184639        0.8172959810
 C         -4.5047444443       -2.1257855738       -0.0587626210
 C         -3.2553381365       -1.5489148555       -0.1466980568
 C         -1.3417818125        1.9551407822        0.9857273157
 C         -0.2578992197        2.5810890775        1.6084500520
 C         -0.2141212427        3.9552401235        1.7138037336
 C         -1.2406900172        4.7280331543        1.1885787156
 C         -2.3113405763        4.1121356106        0.5481193359
 C         -2.3617052138        2.7412690860        0.4326700805
 C         -1.3218150331        0.1752458513       -2.3044999436
 C         -0.5993062771        0.2524647600       -3.4781641193
 C         -1.3129792760        0.3373814481       -4.7925553976
 H          2.6704016665        0.2884139497       -4.5157933601
 H          1.3769461906        1.2349243426       -5.2589664126
 H          1.3532591305       -0.5208957165       -5.3715400098
 H          2.5650439109        0.1763870786       -2.2050031763
 H         -0.5821350476       -1.9550668169        2.0264852167
 H         -0.8843960198       -4.3998638504        1.9391515191
 H          0.7421441811       -5.8042652263        0.7206670524
 H          2.6600320246       -4.7552978360       -0.4268181478
 H          2.9483858643       -2.3073316128       -0.3734787588
 H          2.7183448443        2.0384059989       -0.4220135901
 H          5.0496217765        2.8188375359       -0.1520767511
 H          6.6295459104        1.5224638233        1.2320081227
 H          5.8790631955       -0.5404393567        2.3581530623
 H          3.5564267088       -1.3272148291        2.0802227180
 H         -3.6320206824        0.9103956739        2.1586845643
 H         -5.8650125083       -0.1317829200        2.3119731434
 H         -6.4251818481       -2.0698559838        0.8922184366
 H         -4.7441088695       -2.9878704191       -0.6647382616
 H         -2.5027114765       -1.9535790158       -0.8104565547
 H          0.5339534691        1.9720857122        2.0310823667
 H          0.6202256301        4.4307363203        2.2094858200
 H         -1.2066652815        5.8038104088        1.2711874170
 H         -3.1060323753        4.7143001467        0.1310210506
 H         -3.1854435494        2.2613483726       -0.0783776662
 H         -2.4038673095        0.1741753986       -2.3317408879
 H         -1.0287803784        1.2428043406       -5.3284345204
 H         -2.3898868291        0.3480172207       -4.6433938802
 H         -1.0601553498       -0.5139197411       -5.4249597031
  62
  -87.3203028039000       0.335665103683687      !
 C          1.6206677378        0.3934747390       -4.7055546752
 C          0.8363819734        0.2922714216       -3.4332772802
 C          1.4949680636        0.2121271161       -2.2217280212
 C          0.7681072714        0.1491756663       -1.0403053620
 P          1.2669911484       -0.1648309667        0.6549583616
 C          1.1910033429       -1.9631963284        0.8540013522
 C          0.1104754869       -2.5445004897        1.5214265448
 C         -0.0725579989       -3.9116682573        1.4927406281
 C          0.8103204170       -4.7173980378        0.7881439350
 C          1.8802522831       -4.1432535607        0.1094398867
 C          2.0674789383       -2.7788457369        0.1289168473
 C          3.0266461544        0.2518470396        0.7514825628
 C          3.4480883491        1.4580909237        0.1838992963
 C          4.7562571880        1.8704135502        0.3294578842
 C          5.6460487917        1.1136017778        1.0799079780
 C          5.2148877148       -0.0536130509        1.6967326080
 C          3.9084886875       -0.4737765580        1.5555833087
 C         -0.6492781443        0.0823867745       -1.0844079072
 P         -1.2476189283        0.1995130880        0.6024721375
 C         -2.9392732757       -0.4311823078        0.6152258360
 C         -3.8770819971        0.0301260213        1.5435791571
 C         -5.1118782113       -0.5775211719        1.6343466850
 C         -5.4123784405       -1.6754595511        0.8384128700
 C         -4.4625333274       -2.1728307240       -0.0443256958
 C         -3.2248540082       -1.5726403993       -0.1404889821
 C         -1.3585352469        1.9640610678        0.9707801055
 C         -0.2717674775        2.6111806949        1.5668837502
 C         -0.2422538205        3.9870265709        1.6521926754
 C         -1.2864606008        4.7405435198        1.1336426297
 C         -2.3602681523        4.1033421493        0.5196147706
 C         -2.3964522620        2.7305814623        0.4235698719
 C         -1.3096617030        0.1921334864       -2.3030269992
 C         -0.5843963528        0.2896712862       -3.4732936721
 C         -1.2948661022        0.3888004054       -4.7883781482
 H          2.6879891034        0.3685199621       -4.4999994893
 H          1.3913482321        1.3228453699       -5.2273107290
 H          1.3780954941       -0.4303280017       -5.3765050878
 H          2.5768798905        0.2186068068       -2.1922298491
 H         -0.5653509738       -1.9133197419        2.0876183407
 H         -0.9054567188       -4.3539211792        2.0203715802
 H          0.6651475828       -5.7868295385        0.7620764791
 H          2.5639917491       -4.7707129217       -0.4443766591
 H          2.8896974732       -2.3266136084       -0.4096265784
 H          2.7397668482        2.0485818387       -0.3827481595
 H          5.0865687347        2.7896403135       -0.1327558055
 H          6.6678060819        1.4415217107        1.1993151964
 H          5.9035459794       -0.6322071853        2.2955189812
 H          3.5651539489       -1.3783593408        2.0391650128
 H         -3.6323337536        0.8793097774        2.1676560773
 H         -5.8447724794       -0.2040331462        2.3350428032
 H         -6.3766633645       -2.1540677733        0.9206710088
 H         -4.6894542296       -3.0396210444       -0.6483875575
 H         -2.4689614593       -1.9633557538       -0.8090031280
 H          0.5349147226        2.0170081889        1.9829875529
 H          0.5950408292        4.4792357612        2.1260568796
 H         -1.2638002128        5.8175405246        1.2011843115
 H         -3.1696379672        4.6901439447        0.1094049780
 H         -3.2244406659        2.2342499734       -0.0640125868
 H         -2.3916116646        0.1843231803       -2.3330205241
 H         -2.3723012496        0.3794156544       -4.6430857005
 H         -1.0261819618       -0.4453492988       -5.4367696434
 H         -1.0234299519        1.3093637571       -5.3048444582
  62
  -87.3202580882000       0.320152045331991      !
 C          1.5550868516        0.3061391401       -4.7138416425
 C          0.7819551340        0.2185636426       -3.4338230280
 C          1.4503914944        0.1585994007       -2.2270409723
 C          0.7326326071        0.1038225613       -1.0387887285
 P          1.2488916995       -0.2109824676        0.6503474719
 C          1.2519765741       -2.0111695669        0.8262608487
 C          0.1574011069       -2.6526111574        1.4118747452
 C          0.0415522193       -4.0258667868        1.3531231989
 C          1.0059713249       -4.7790807894        0.6985570137
 C          2.0889445881       -4.1448318449        0.0982614532
 C          2.2103435480       -2.7741523668        0.1473273049
 C          2.9807497863        0.2975502245        0.7657710703
 C          3.3480942905        1.5157098373        0.1858474722
 C          4.6268771737        2.0036864168        0.3551358957
 C          5.5387824050        1.3114340683        1.1408236708
 C          5.1589043557        0.1319400258        1.7681919901
 C          3.8821842376       -0.3637418924        1.6036144494
 C         -0.6845887501        0.0288032481       -1.0713473836
 P         -1.2686209810        0.1479436070        0.6209127840
 C         -2.9949770880       -0.3896644268        0.6133475783
 C         -3.9348668317        0.1560255475        1.4913285589
 C         -5.2076772938       -0.3723770030        1.5516119391
 C         -5.5463524159       -1.4742869753        0.7769593860
 C         -4.5972877696       -2.0565781675       -0.0526393073
 C         -3.3222183752       -1.5352632206       -0.1186061732
 C         -1.3004482590        1.9159977812        0.9977792231
 C         -0.2237663410        2.4994848387        1.6713153859
 C         -0.1243363271        3.8716599893        1.7692671279
 C         -1.0874677505        4.6835079582        1.1868052722
 C         -2.1520291525        4.1091943526        0.4991582415
 C         -2.2567586910        2.7406284712        0.3911500131
 C         -1.3547509740        0.1202438532       -2.2851741255
 C         -0.6390770584        0.2064676055       -3.4627367084
 C         -1.3607879410        0.2807338391       -4.7733103716
 H          1.3212267432        1.2299574365       -5.2435706746
 H          1.3064570266       -0.5248084033       -5.3736917318
 H          2.6242674540        0.2832758915       -4.5176157039
 H          2.5323913405        0.1738218790       -2.2050060329
 H         -0.5848773824       -2.0617409632        1.9376210375
 H         -0.8019516646       -4.5149069605        1.8190760965
 H          0.9141172952       -5.8535727528        0.6501185568
 H          2.8354950328       -4.7307942565       -0.4181030893
 H          3.0425263520       -2.2766790178       -0.3318604911
 H          2.6217539369        2.0558362225       -0.4074634426
 H          4.9163020200        2.9323894932       -0.1155600690
 H          6.5368281987        1.6993396672        1.2794499586
 H          5.8638933695       -0.3961325487        2.3941916896
 H          3.5778425632       -1.2781655493        2.0951886899
 H         -3.6621410399        1.0083983183        2.0989284800
 H         -5.9416605922        0.0679709208        2.2109670865
 H         -6.5415177085       -1.8892157352        0.8343334375
 H         -4.8550271555       -2.9267465447       -0.6392491881
 H         -2.5675161557       -1.9916490041       -0.7458661336
 H          0.5172353803        1.8612463605        2.1401325897
 H          0.7052277761        4.3141769039        2.3020380916
 H         -1.0088147485        5.7575446641        1.2616374781
 H         -2.8975285085        4.7416696074        0.0384592003
 H         -3.0740788934        2.2920166279       -0.1573761278
 H         -2.4368405340        0.1050374134       -2.3075808575
 H         -2.4369221708        0.2740549356       -4.6185535990
 H         -1.0979158969       -0.5660941361       -5.4076012151
 H         -1.0939248001        1.1908730346       -5.3101751530
