  133
       -189.48845756
 C         -0.1679116567       -9.1401940061        1.8676764360
 C          0.3421084429       -7.8025793483        2.4110165292
 C          1.8597205923       -7.7453486288        2.1854956173
 C          0.0369795015       -7.7531624500        3.9149192133
 C         -0.3088612400       -6.6081376609        1.7284782891
 C          0.0612276978       -5.3169886921        2.1290807905
 C         -0.4705736401       -4.1753992089        1.5656164201
 C         -1.4050336366       -4.3243308765        0.5525189710
 C         -1.8096043262       -5.6122525268        0.1433727742
 C         -1.2592055023       -6.7442298723        0.7304986706
 C         -2.7991552997       -5.4216498091       -0.8805334126
 C         -3.5298439416       -6.3026210082       -1.6672538026
 C         -4.4084354540       -5.8097947235       -2.6175409412
 C         -5.2399131327       -6.7151383692       -3.5149860569
 C         -6.7290844242       -6.4055130853       -3.3058160998
 C         -5.0193940294       -8.2008955422       -3.2173346196
 C         -4.8564314598       -6.4609310865       -4.9797579827
 C         -4.5226538879       -4.4208277463       -2.7665323769
 C         -3.8111532112       -3.5226160176       -1.9979524241
 C         -2.9520995483       -4.0276057905       -1.0341011261
 N         -2.1066982905       -3.3727023739       -0.1606787124
 C         -1.9715663742       -1.9851730214       -0.0269137567
 C         -3.1146174224       -1.1914842524        0.1344856055
 C         -3.0282887527        0.1794275411        0.2659107193
 C         -1.7672977920        0.7588438405        0.2585173340
 C         -0.6090315739       -0.0312979769        0.0821566132
 C         -0.7108959432       -1.4059833206       -0.0634314277
 C          0.5051176573        0.8744517523        0.0622185389
 C          1.8731224475        0.6853821371       -0.0607793629
 C          2.7017669467        1.7973625562       -0.0173062399
 N          4.0895942286        1.6411649727       -0.1269607558
 C          4.9177783560        2.3265533522       -0.9924228176
 C          4.6136254628        3.2596493457       -1.9715038801
 C          5.6505917096        3.7664021590       -2.7274248043
 C          6.9846952094        3.3739945573       -2.5512119860
 C          8.0547469122        3.9929002491       -3.4391636548
 C          9.4575233621        3.4658538362       -3.1242321458
 C          7.7428136426        3.6661043164       -4.9065760335
 C          8.0618856763        5.5144556064       -3.2349242437
 C          7.2738138807        2.4285726051       -1.5815334888
 C          6.2498089190        1.9010468596       -0.8055728513
 C          6.2186216932        0.9137403938        0.2374692981
 C          7.2072373680        0.1688031497        0.8674370704
 C          6.8655752905       -0.7072060862        1.8840529265
 C          7.8958959321       -1.5485527066        2.6237262090
 C          7.5476037311       -3.0349669973        2.4618067879
 C          7.8787784964       -1.1689203865        4.1114017255
 C          9.3174593743       -1.3352501218        2.0960538313
 C          5.5178225868       -0.8091425364        2.2554355662
 C          4.5151221140       -0.0821819591        1.6473948191
 C          4.8674666476        0.7800300785        0.6206075449
 C          2.1641023672        3.0793647592        0.1559911732
 C          0.8043353768        3.2823750203        0.2718108602
 C         -0.0289917809        2.1741971048        0.2109040264
 N         -1.4046730674        2.0914960211        0.3346637491
 C         -2.2758563512        3.1654447689        0.5318489833
 C         -3.2272118306        3.1131523349        1.5525625018
 C         -4.0862945030        4.1767831133        1.7496775433
 C         -3.9901136755        5.2914093311        0.9367234634
 S         -5.1232864970        6.6628667106        1.2096079293
 O         -5.0531727845        7.0521415393        2.5948858989
 O         -4.8618914472        7.6705500665        0.2136847184
 C         -6.7262659195        5.9127186262        0.8967893842
 C         -7.0124191954        5.4784414985       -0.3838055305
 C         -8.2328043865        4.8732783778       -0.6336548018
 C         -9.1455731025        4.7077996104        0.3975753079
 C         -8.8465822754        5.1462350218        1.6779799874
 C         -7.6262633740        5.7521039421        1.9317631821
 C         -3.0548080479        5.3560579864       -0.0780870648
 C         -2.1961357956        4.2927395437       -0.2857940938
 H          0.0454124253       -9.2377313929        0.8057234478
 H          0.3309132811       -9.9561891671        2.3868275097
 H         -1.2383554014       -9.2448926324        2.0285483744
 H          2.0814956743       -7.7608808154        1.1203039477
 H          2.2904378765       -6.8422395273        2.6088702238
 H          2.3412068232       -8.6027356159        2.6512784164
 H          0.4746068115       -8.6146256630        4.4151411726
 H         -1.0384140782       -7.7669029722        4.0799112751
 H          0.4396123907       -6.8539945633        4.3727318161
 H          0.7913301540       -5.1960701453        2.9149142902
 H         -0.1713377639       -3.1984395134        1.9155761314
 H         -1.5899172513       -7.7120439561        0.3927283763
 H         -3.3888482798       -7.3605771231       -1.5221373434
 H         -7.3386829839       -7.0608795110       -3.9244766517
 H         -7.0016443059       -6.5614035473       -2.2640160886
 H         -6.9621163859       -5.3775044438       -3.5685712981
 H         -3.9841713968       -8.4852216209       -3.3909194423
 H         -5.2877964282       -8.4376014176       -2.1903602866
 H         -5.6463039855       -8.7993349455       -3.8753484645
 H         -5.0543331555       -5.4326359348       -5.2691025889
 H         -3.7969837814       -6.6583810927       -5.1297377945
 H         -5.4264196602       -7.1153606012       -5.6360122064
 H         -5.1893475448       -4.0223202736       -3.5162656806
 H         -3.9143472354       -2.4594497101       -2.1577370186
 H         -4.0806078448       -1.6723728927        0.1636547422
 H         -3.9213112189        0.7775890986        0.3662666539
 H          0.1661265690       -2.0136669936       -0.2224032613
 H          2.2877104867       -0.3017715268       -0.1929619433
 H          3.5961737755        3.5751776476       -2.1497582128
 H          5.4093098385        4.4930996687       -3.4882827810
 H          9.5166788483        2.3917582561       -3.2839215337
 H          9.7383491224        3.6908346691       -2.0979537315
 H         10.1804222331        3.9432011073       -3.7829014724
 H          8.5094519373        4.0849176686       -5.5553227684
 H          7.7166352382        2.5882014273       -5.0532030532
 H          6.7821461673        4.0736272859       -5.2087377140
 H          7.1075736954        5.9562635009       -3.5075109675
 H          8.2617398713        5.7519762322       -2.1920247759
 H          8.8357296228        5.9717688958       -3.8480555642
 H          8.2792075684        2.0810839998       -1.4125610779
 H          8.2287779282        0.2971222945        0.5511138788
 H          7.5388596998       -3.3056164390        1.4079001854
 H          8.2861677984       -3.6509887791        2.9707926383
 H          6.5706559291       -3.2621981836        2.8791870102
 H          8.1020325804       -0.1106968339        4.2308735899
 H          8.6263226562       -1.7435575259        4.6544478486
 H          6.9084212936       -1.3638218884        4.5594256039
 H         10.0086629441       -1.9659886594        2.6516806658
 H          9.3884190642       -1.6038161265        1.0445567318
 H          9.6307549158       -0.3016237184        2.2231087227
 H          5.2389094694       -1.4787360958        3.0548797629
 H          3.4903744865       -0.1762480482        1.9754072872
 H          2.8385452423        3.9199409956        0.2177248583
 H          0.4105132856        4.2747173814        0.4290339243
 H         -3.2694764287        2.2482144986        2.1972163884
 H         -4.8176529004        4.1613272166        2.5430140315
 H         -6.2860234526        5.6316690635       -1.1675010030
 H         -8.4722061045        4.5328607922       -1.6297403460
 H        -10.0967757152        4.2361057354        0.2004758297
 H         -9.5609755904        5.0180028400        2.4770671750
 H         -7.3575072059        6.1108453770        2.9135227234
 H         -3.0166200335        6.2429162367       -0.6915189381
 H         -1.4736881068        4.3211599889       -1.0873955233
