  54
  -89.0045941683000       0.379692340318519      !
 N         -5.9407537274       -1.8929916249        0.8063036619
 C         -4.9598696119       -1.3241018273        0.5732756658
 C         -3.7680679054       -0.6794292244        0.2810111652
 C         -2.5486090934       -1.2958673701        0.5567905852
 C         -1.3517417348       -0.6582755785        0.3162964486
 N         -0.1362789400       -1.1970870596        0.7243838568
 C          0.3761592892       -2.4226062604        0.3599635203
 C         -0.2309400380       -3.4621901077       -0.3351552704
 C          0.5357738335       -4.5716334395       -0.6353117764
 C          1.8754764316       -4.6502732281       -0.2585125601
 C          2.4910693475       -3.6118934221        0.4196529353
 C          1.7431624304       -2.4890064146        0.7324060876
 C          2.0507625332       -1.2438448009        1.3849399422
 C          3.1916656292       -0.7236734990        1.9744132003
 C          3.1194867717        0.5262027125        2.5677398173
 C          1.9226024149        1.2350263969        2.6103838699
 C          0.7717714152        0.7342188671        2.0289003849
 C          0.8567778945       -0.4871108093        1.3753104576
 C         -1.3520533215        0.6577935573       -0.3181843402
 N         -0.1366370617        1.1972235374       -0.7258853101
 C          0.3754385002        2.4226547342       -0.3605439103
 C         -0.2324290448        3.4620615059        0.3341439058
 C          0.5340661268        4.5712600227        0.6358569398
 C          1.8743744327        4.6497675207        0.2611423219
 C          2.4906410699        3.6116604404       -0.4168211349
 C          1.7429182884        2.4890832570       -0.7312375026
 C          2.0510631870        1.2443598414       -1.3843888102
 C          3.1923906389        0.7247598937       -1.9735781285
 C          3.1207090015       -0.5246794105       -2.5678702555
 C          1.9239897048       -1.2337340445       -2.6115362346
 C          0.7727616202       -0.7335073812       -2.0303533619
 C          0.8571494730        0.4875165364       -1.3761028806
 C         -2.5492064763        1.2948821443       -0.5585525981
 C         -3.7684012393        0.6781321746       -0.2821017272
 C         -4.9605778171        1.3229923580       -0.5722110329
 N         -5.9414187030        1.8921890193       -0.8047386720
 H         -2.5547106241       -2.2667895483        1.0303732211
 H         -1.2654308745       -3.4060683669       -0.6376059771
 H          0.0876677396       -5.3925376485       -1.1738229037
 H          2.4417049015       -5.5343205727       -0.5090841543
 H          3.5332731896       -3.6690966178        0.6931890800
 H          4.1131380734       -1.2848751389        1.9763242389
 H          3.9990254259        0.9502783741        3.0270281789
 H          1.8855871228        2.1898824311        3.1118633223
 H         -0.1640431431        1.2674624582        2.0971175595
 H         -1.2672881503        3.4059004101        0.6353333543
 H          0.0850976646        5.3923239871        1.1733939838
 H          2.4400565841        5.5340368376        0.5118375570
 H          3.5329523827        3.6691799434       -0.6897548207
 H          4.1140039823        1.2857462744       -1.9738250930
 H          4.0008281216       -0.9487180191       -3.0260904548
 H          1.8875947827       -2.1885976488       -3.1130361532
 H         -0.1629018767       -1.2669273419       -2.0993375123
 H         -2.5558023385        2.2658809271       -1.0319946854
  54
  -89.0045255579000       0.353102408064799      !
 N         -5.9371091847       -0.9189812516        1.8352254874
 C         -4.9518993671       -0.6633431045        1.2836946252
 C         -3.7612300407       -0.3230344859        0.6607108570
 C         -2.5412292662       -0.6203815498        1.2647279136
 C         -1.3416347217       -0.3424861003        0.6461046345
 N         -0.1311218290       -0.7490457869        1.1960611643
 C          0.8992628394       -1.3473416086        0.4934439616
 C          0.8695989087       -1.9592559791       -0.7521467688
 C          2.0527246299       -2.4827662406       -1.2411005576
 C          3.2281210797       -2.4275903871       -0.4975866085
 C          3.2449310108       -1.8840517695        0.7765471236
 C          2.0708634383       -1.3531169679        1.2853413950
 C          1.7090094483       -0.7590064232        2.5448314692
 C          2.4142924361       -0.4749495487        3.7026823607
 C          1.7507057556        0.1454815418        4.7474910440
 C          0.4059050778        0.4960243880        4.6402756801
 C         -0.3184551281        0.2237256192        3.4955236565
 C          0.3357141831       -0.4183981414        2.4505496832
 C         -1.3416784345        0.3426732582       -0.6440168571
 N         -0.1312569428        0.7493683119       -1.1942695425
 C          0.8987873849        1.3502750037       -0.4934702018
 C          0.8702892975        1.9618660400        0.7523069077
 C          2.0529287211        2.4890798186        1.2384703439
 C          3.2268290523        2.4375450019        0.4924043454
 C          3.2427288106        1.8927646642       -0.7811909440
 C          2.0692656525        1.3578339881       -1.2870751198
 C          1.7074552967        0.7602753511       -2.5449255706
 C          2.4126806385        0.4732046957       -3.7020342354
 C          1.7499355551       -0.1532471530       -4.7438098082
 C          0.4060169262       -0.5063697386       -4.6343677904
 C         -0.3183521606       -0.2307339914       -3.4904620432
 C          0.3350525659        0.4169465151       -2.4484073871
 C         -2.5411767851        0.6186981942       -1.2636957988
 C         -3.7612754436        0.3179154812       -0.6613400544
 C         -4.9527627710        0.6508384410       -1.2866572464
 N         -5.9309361482        0.9285021062       -1.8398810114
 H         -2.5470289846       -1.1407939319        2.2113236912
 H         -0.0477442260       -2.0376439106       -1.3152960196
 H          2.0589392262       -2.9472047148       -2.2152016369
 H          4.1348960084       -2.8375570773       -0.9147771886
 H          4.1498326105       -1.8778337395        1.3641189047
 H          3.4602523803       -0.7275341917        3.7822584807
 H          2.2818744445        0.3696860605        5.6597850438
 H         -0.0806710378        0.9907849048        5.4667571422
 H         -1.3564395581        0.5087414653        3.4178980153
 H         -0.0458008981        2.0373955242        1.3178334077
 H          2.0599526101        2.9536567577        2.2124875238
 H          4.1331146188        2.8509832471        0.9072371970
 H          4.1463746618        1.8888133278       -1.3706615764
 H          3.4581810325        0.7272377611       -3.7830447843
 H          2.2813454938       -0.3809396692       -5.6551159207
 H         -0.0797993721       -1.0060676292       -5.4583209639
 H         -1.3556320818       -0.5178050637       -3.4109899779
 H         -2.5468178459        1.1394795482       -2.2100851637
  54
  -89.0036812788000       0.144509656788611      !
 N         -5.9522453664       -0.6697104174        1.9502230976
 C         -4.9749064117       -0.4764037088        1.3603840337
 C         -3.7821951248       -0.2417702620        0.6940193416
 C         -2.5634654059       -0.5095459142        1.3171383753
 C         -1.3714046877       -0.3045446989        0.6609890889
 N         -0.1482843776       -0.7301325567        1.1709597166
 C          0.7916862167       -1.4239282899        0.4294927165
 C          0.6246717973       -2.1069177071       -0.7667547479
 C          1.7311249836       -2.7364822937       -1.3085923528
 C          2.9643793832       -2.7054262108       -0.6653618912
 C          3.1200078678       -2.0738924107        0.5582176971
 C          2.0242486262       -1.4386143405        1.1201906159
 C          1.7980169274       -0.7401586555        2.3582756722
 C          2.6133680715       -0.4032347587        3.4253342246
 C          2.0684104606        0.3194544326        4.4733680553
 C          0.7313192282        0.7123014712        4.4606199752
 C         -0.1022116162        0.3898356327        3.4069395613
 C          0.4360218384       -0.3425242715        2.3552934302
 C         -1.3731006115        0.3000317236       -0.6701562869
 N         -0.1503350243        0.7272293811       -1.1806664772
 C          0.7848179933        1.4250183981       -0.4364879299
 C          0.6105528503        2.1091160843        0.7580653121
 C          1.7128262781        2.7426948402        1.3034525158
 C          2.9489419378        2.7141653110        0.6654130179
 C          3.1119547052        2.0802205983       -0.5558188766
 C          2.0203919134        1.4406096761       -1.1212926523
 C          1.8018460700        0.7368645707       -2.3577938456
 C          2.6241940568        0.3943656357       -3.4176497603
 C          2.0865871547       -0.3351057839       -4.4647142149
 C          0.7492997213       -0.7276443971       -4.4588581798
 C         -0.0912802508       -0.3995322331       -3.4126218937
 C          0.4403057667        0.3373466168       -2.3606267720
 C         -2.5668653325        0.5095572548       -1.3212964299
 C         -3.7841688807        0.2489994663       -0.6921141904
 C         -4.9788973527        0.4953721806       -1.3504316731
 N         -5.9636952372        0.6832179364       -1.9294155848
 H         -2.5695703939       -0.9446974549        2.3060004567
 H         -0.3404462137       -2.1619345270       -1.2466948673
 H          1.6303934319       -3.2648832184       -2.2440645492
 H          3.8075651839       -3.2020792232       -1.1200475277
 H          4.0711733796       -2.0820322464        1.0674183050
 H          3.6526622367       -0.6931808022        3.4330050912
 H          2.6885118959        0.5886771667        5.3146621045
 H          0.3382661790        1.2800006869        5.2900119976
 H         -1.1355565119        0.7011003930        3.4016627192
 H         -0.3566869740        2.1614251515        1.2340570234
 H          1.6067308656        3.2723750490        2.2376135040
 H          3.7884653388        3.2143304742        1.1230187668
 H          4.0652997378        2.0896186838       -1.0608906352
 H          3.6633088076        0.6850340600       -3.4200928983
 H          2.7124055527       -0.6096180521       -5.3000407241
 H          0.3618919809       -1.2998800296       -5.2878017773
 H         -1.1249067931       -0.7101387263       -3.4125752359
 H         -2.5754104265        0.9449656614       -2.3100872355
  54
  -89.0035266382000       0.122695594828072      !
 N         -5.9578363260       -0.6604979018        1.9437392578
 C         -4.9764265118       -0.4722180405        1.3595000440
 C         -3.7822266413       -0.2372273601        0.6961581957
 C         -2.5646850248       -0.4941926536        1.3268736073
 C         -1.3731313485       -0.2944646571        0.6694409932
 N         -0.1472432543       -0.7255429222        1.1703467042
 C          0.7636305246       -1.4516896184        0.4239725877
 C          0.5589107347       -2.1481876219       -0.7585227629
 C          1.6388675526       -2.8170700954       -1.3064968182
 C          2.8825943309       -2.8089317672       -0.6830440094
 C          3.0760220278       -2.1587423735        0.5253422408
 C          2.0071951698       -1.4841046232        1.0935442155
 C          1.8186991091       -0.7587763765        2.3227359827
 C          2.6599012255       -0.4213745309        3.3692258979
 C          2.1488149801        0.3297494184        4.4144455170
 C          0.8194796398        0.7480096607        4.4201643174
 C         -0.0398278539        0.4253861624        3.3873693527
 C          0.4653707492       -0.3321622895        2.3372259754
 C         -1.3731104616        0.2961443376       -0.6675268786
 N         -0.1474142515        0.7274250013       -1.1689315148
 C          0.7631530979        1.4565828248       -0.4252133787
 C          0.5598133164        2.1531533602        0.7575036720
 C          1.6390567444        2.8266167540        1.3012400679
 C          2.8808063135        2.8227956850        0.6737131016
 C          3.0733118177        2.1704667849       -0.5336455223
 C          2.0054244481        1.4904668482       -1.0971858460
 C          1.8173569122        0.7596799835       -2.3232213605
 C          2.6593159263        0.4157998882       -3.3669430384
 C          2.1497090919       -0.3441120485       -4.4065633935
 C          0.8207547152       -0.7634745323       -4.4100877719
 C         -0.0394669943       -0.4339298574       -3.3802728039
 C          0.4647928445        0.3308222597       -2.3348684979
 C         -2.5641955957        0.4945659315       -1.3259250558
 C         -3.7820638254        0.2360464787       -0.6962630786
 C         -4.9758128411        0.4690338168       -1.3610056566
 N         -5.9563539720        0.6555448707       -1.9472244558
 H         -2.5718724202       -0.9168851421        2.3211960012
 H         -0.4154542416       -2.1849940925       -1.2210438092
 H          1.5087742758       -3.3594829051       -2.2302482779
 H          3.7039500954       -3.3377234581       -1.1414457817
 H          4.0351888269       -2.1834106164        1.0187495971
 H          3.6927725014       -0.7336179766        3.3636849531
 H          2.7895506232        0.5998089817        5.2398713505
 H          0.4530034467        1.3352199012        5.2481365494
 H         -1.0680574940        0.7532470616        3.3968511180
 H         -0.4129517036        2.1865646883        1.2237020205
 H          1.5099075443        3.3696563793        2.2247659264
 H          3.7012491942        3.3564465849        1.1281646532
 H          4.0308929977        2.1977877268       -1.0300632257
 H          3.6920405227        0.7285273022       -3.3628886184
 H          2.7915470435       -0.6208331108       -5.2288799745
 H          0.4554666716       -1.3577895559       -5.2335043801
 H         -1.0674300686       -0.7627072831       -3.3879423764
 H         -2.5709041177        0.9173106365       -2.3202388154
