  54
        -89.30492864
 N         -5.9371684226       -1.8706494442       -0.8441246238
 C         -4.9519495220       -1.3094057953       -0.6106191131
 C         -3.7612478409       -0.6734276015       -0.2953836144
 C         -2.5412647156       -1.2883797852       -0.5694798686
 C         -1.3416637840       -0.6591913316       -0.3164438862
 N         -0.1312252091       -1.2243848518       -0.7017738331
 C          0.8987748905       -0.5454647983       -1.3274644469
 C          0.8686218058        0.6753094685       -1.9874768667
 C          2.0514339097        1.1436704417       -2.5301727294
 C          3.2269892637        0.4030681149       -2.4465546412
 C          3.2442642299       -0.8488961400       -1.8537472104
 C          2.0705170696       -1.3367914567       -1.3028626468
 C          1.7091471731       -2.5722135064       -0.6599279274
 C          2.4147626924       -3.7179891333       -0.3312395648
 C          1.7516323357       -4.7379164918        0.3297547761
 C          0.4069625836       -4.6173340977        0.6764353616
 C         -0.3177227253       -3.4841919727        0.3600153077
 C          0.3359809320       -2.4649469955       -0.3226575432
 C         -1.3416486207        0.6566691215        0.3178810142
 N         -0.1311530697        1.2225638226        0.7022802604
 C          0.8992763916        0.5459024800        1.3296114631
 C          0.8712673598       -0.6750802429        1.9893333951
 C          2.0542212240       -1.1401176966        2.5345907501
 C          3.2279634926       -0.3964351297        2.4534881876
 C          3.2433977779        0.8549480705        1.8594467337
 C          2.0696132788        1.3393918268        1.3057052708
 C          1.7073177281        2.5729214696        0.6597042111
 C          2.4122092284        3.7180709356        0.3274189730
 C          1.7490059359        4.7345135601       -0.3388955865
 C          0.4049559723        4.6111613861       -0.6868960655
 C         -0.3190865777        3.4787556822       -0.3665435955
 C          0.3347855119        2.4628605372        0.3209984222
 C         -2.5411413182        1.2864431238        0.5700516389
 C         -3.7612591367        0.6726138643        0.2935203226
 C         -4.9527174424        1.3102421096        0.6023223069
 N         -5.9308723881        1.8737119661        0.8586256897
 H         -2.5471152185       -2.2545518841       -1.0525776818
 H         -0.0488573740        1.2348217002       -2.0873677592
 H          2.0572720118        2.0989189164       -3.0322493156
 H          4.1335123549        0.8041028878       -2.8728742802
 H          4.1492753788       -1.4356289224       -1.8250134418
 H          3.4606287120       -3.8071824237       -0.5809842173
 H          2.2830632028       -5.6406849768        0.5891357320
 H         -0.0792508623       -5.4239720951        1.2032631501
 H         -1.3555989711       -3.3956815794        0.6422390810
 H         -0.0446873845       -1.2373822997        2.0872592596
 H          2.0616216498       -2.0952747486        3.0367966580
 H          4.1345017591       -0.7946790388        2.8823951304
 H          4.1469345098        1.4439654548        1.8321161854
 H          3.4578036799        3.8090995882        0.5776440890
 H          2.2801522654        5.6363344339       -0.6021861557
 H         -0.0812245469        5.4149198138       -1.2181353547
 H         -1.3564750029        3.3879772560       -0.6498451612
 H         -2.5467313974        2.2524214664        1.0535311760
