82
 energy: -133.868089831533 gnorm: 0.000073371210 xtb: 6.7.1 (edcfbbe)
N            2.59942860327731        2.03881990231935        2.13743985271847
C            1.94227364478629        1.45540425141987        1.39928451304915
C            1.06181400722887        0.73001117224640        0.57118598698019
C            0.03250868575798        1.40708779124802       -0.11173950828406
N           -0.00084201967287        2.80110213067166       -0.09436015592495
C            1.04263053728102        3.67540391135598       -0.37021814645389
C            2.30320963794586        3.26655007294795       -0.97072307581389
C            2.36546501121581        2.24324077218168       -1.91600671134828
C            3.57210491712189        1.91918628893940       -2.51045788824131
C            4.72464763726177        2.60872075964790       -2.17009140067823
C            4.66622083948786        3.63541774416694       -1.24046362267683
C            3.46368372977650        3.96850402814817       -0.64742647423426
N            0.73064059592694        4.91580210224224       -0.13712978675277
C           -0.56230022316866        4.91346190687113        0.31718482037291
C           -1.37761321596975        5.96752254546491        0.71345375504185
C           -2.65837413469246        5.66399245536357        1.12749894974917
C           -3.12604282136018        4.34938481776838        1.15849423450936
C           -2.33180720776748        3.28675147810903        0.77147297614050
C           -1.05135158472698        3.58804480502402        0.34174272943383
C           -0.94144326964135        0.68991446543824       -0.78758304806403
C           -0.87825990662350       -0.70263214940050       -0.82905492107376
N           -1.82893706879147       -1.42041225518451       -1.55395338367611
C           -3.20940111961869       -1.27835570546320       -1.52849129542453
C           -3.92174046846396       -0.48898031344895       -0.53468217691616
C           -3.47793389595844       -0.41085208128692        0.78486575483612
C           -4.20701206863881        0.30276834367513        1.71924675386153
C           -5.37946514516890        0.94303308434768        1.35055029239375
C           -5.82944753911373        0.86123040999799        0.04209276772764
C           -5.10969051108909        0.14592269311925       -0.89612449327943
N           -3.80394153541533       -1.99904763532735       -2.43409069050573
C           -2.81641462291525       -2.66064541777691       -3.11500955135603
C           -2.90116140462724       -3.54301158667166       -4.18635697572617
C           -1.72212290354326       -4.05107528139779       -4.69103875043780
C           -0.48275844658749       -3.69098698649445       -4.15908388515977
C           -0.37636630959123       -2.81651858655320       -3.09429677603498
C           -1.55743166748022       -2.31811413948895       -2.57057128651626
C            0.16264042081220       -1.37704698979574       -0.19895213504150
C            1.12526874915918       -0.67216581105544        0.51262467736436
N            2.13709535743061       -1.36367177260120        1.17567519642903
C            1.98957287933106       -2.48312448262973        1.98604749305578
C            0.69696623118826       -3.00476457596675        2.40978676617619
C           -0.35072429171675       -2.15896058340687        2.77183473221307
C           -1.55685067344558       -2.69068758397900        3.19032122066996
C           -1.73321132903048       -4.06382255630745        3.24735697193168
C           -0.68916594227035       -4.90903189011248        2.90683620840635
C            0.52265491038004       -4.38516850563689        2.49723770102454
N            3.12829200107628       -2.98031571581281        2.36576753647520
C            4.10210211910992       -2.19396032783953        1.80655435082676
C            5.48641957925457       -2.29420547471666        1.88065306524860
C            6.23193875617467       -1.36334157499961        1.18721690319983
C            5.62717414925233       -0.36164630040149        0.42692874714518
C            4.25318703663484       -0.24485535133904        0.33975643097083
C            3.50033014358143       -1.16052179180246        1.05339543222835
H            1.46746784750273        1.71700604378803       -2.20937130811114
H            3.60997146934282        1.12603153567543       -3.24274639929529
H            5.66371503020831        2.34922194097153       -2.63488626013749
H            5.56063893156776        4.17970195822620       -0.97831047545540
H            3.39899659770240        4.76770854037205        0.07374815560449
H           -1.00684400512096        6.97968923770480        0.69480011949544
H           -3.31700448438439        6.46036988294107        1.43971540572014
H           -4.13401744153292        4.15564576091359        1.49121237045525
H           -2.69793785689312        2.27216818886703        0.80383469638664
H           -1.73015333097007        1.21293496824956       -1.30593766463048
H           -2.57944935998614       -0.93061605619128        1.08564710997111
H           -3.85872490249507        0.35983094279030        2.74016215157784
H           -5.94333360251269        1.49824779118161        2.08477340377618
H           -6.74566365020790        1.35356906959747       -0.24679196554390
H           -5.45133938872665        0.06400945811876       -1.91616463459868
H           -3.86086591038730       -3.80659497359065       -4.60083823385062
H           -1.75291726655782       -4.73951122828772       -5.52210522061356
H            0.41597197869253       -4.10504773921975       -4.59069497093955
H            0.58696155765366       -2.53469294209328       -2.69612828095017
H            0.21048584908581       -2.45412011048338       -0.23965757978412
H           -0.21067064617685       -1.08657260771161        2.75554723137824
H           -2.36134680436104       -2.03179688796221        3.48037271450531
H           -2.67986385124919       -4.47191971737053        3.56751852292315
H           -0.81837601050268       -5.97926844094055        2.96359833893093
H            1.34840106736952       -5.02916482975992        2.23710601725511
H            5.94579249484902       -3.07950130182249        2.45909568141981
H            7.30972417252166       -1.41086598873596        1.22524563249072
H            6.24568450143755        0.34227307590321       -0.10780826205814
H            3.79823716076486        0.53190892306506       -0.25553597648301
