58
 energy: -98.138775457899 gnorm: 0.000063920827 xtb: 6.7.1 (edcfbbe)
C            6.08363493385298       -3.85842852877141        0.92455018631186
C            5.18305526660858       -4.89713791934681        1.11696327469150
N            3.87126955964404       -4.74291924711026        1.04249077562697
C            3.39687974434655       -3.54362474834474        0.77324561550935
C            4.20451739255119       -2.42567361032183        0.56284981373134
C            3.61875272115261       -1.11660729115755        0.26620000211612
N            2.30413894955116       -1.01232946696230        0.24631519465121
C            1.72382123375280        0.19123845106819       -0.03107128623007
C            0.27627215846409        0.21916384951989       -0.03709045873070
C           -0.47096332428427        1.35906166569572       -0.36686693633169
C           -1.84755147260957        1.32781398471654       -0.36334817194423
C           -2.52310346025994        0.15708413072763       -0.02856254014914
N           -3.94190471959137        0.12902761697316       -0.03053153926945
C           -4.65978843077468        0.81943376804530        0.93562917869836
C           -4.03373926456305        1.52950811134101        1.95630250030006
C           -4.78134972844047        2.20929068131153        2.90182299700362
C           -6.16387656604306        2.18804267494132        2.85078947578831
C           -6.80409289071013        1.47004555588268        1.85348984439953
C           -6.06395771419499        0.78620522275598        0.90489610885313
O           -6.75567527301003        0.08035276936770       -0.04164604843654
C           -6.03237649158520       -0.60542839173787       -0.97953184109132
C           -6.74114024566416       -1.31720590420801       -1.93153522660549
C           -6.06878507499491       -2.01673857610719       -2.92075097707541
C           -4.68593108520369       -1.99197908723696       -2.95992959004042
C           -3.96951806390353       -1.28374169058222       -2.01116454202010
C           -4.62770102550794       -0.59093043014112       -0.99885416622436
C           -1.79823917000924       -0.98531726095500        0.30404948663462
C           -0.42405052113635       -0.95225310376453        0.29701541038321
C            2.52852591072004        1.28954730131017       -0.28558037978511
C            3.92109956862286        1.12721407977773       -0.24949836892437
C            4.84476992143434        2.18120323852314       -0.49262779523337
C            6.24007620026660        1.93378094824273       -0.44623147838315
N            7.13063438467705        2.85884583108759       -0.66173102354161
C            6.71828922103996        4.09141209486163       -0.93799428064963
N            5.44194014227187        4.44226394487807       -1.00853847816832
C            4.52891162200534        3.52760194745755       -0.79504925674458
N            4.43031555635945       -0.10954712391628        0.03468753687994
C            5.58431251078855       -2.60011897139627        0.64267453964130
H            7.14622038704766       -4.03311272460249        0.99464819967278
H            5.52302210700118       -5.89988883924269        1.34079220109115
H            2.32089486404601       -3.45137007546493        0.71723518906478
H            0.02256698830105        2.27871789275184       -0.63813193599558
H           -2.41436060051798        2.20993721790192       -0.62454559170413
H           -2.95657065277810        1.54075357112313        2.00724520729383
H           -4.27486376960232        2.75497529465720        3.68256654536754
H           -6.74692832933356        2.71974289649912        3.58568444733071
H           -7.87957252350180        1.42361265855393        1.79443068913466
H           -7.81802666945753       -1.30692175365511       -1.88138915382184
H           -6.62741638673098       -2.57046290187312       -3.65834162074818
H           -4.15460455497011       -2.52388573230593       -3.73359369449314
H           -2.89220430157902       -1.26048294613642       -2.05290859179342
H           -2.32523794260016       -1.89076363180170        0.56779669125765
H            0.14602166817352       -1.83026821070237        0.55545936039738
H            2.10615071941044        2.25552156786959       -0.50413879598762
H            6.58605105898397        0.93237382869007       -0.22298624828950
H            7.46478799603990        4.84937632751937       -1.11492830669891
H            3.50534133083972        3.87120277941613       -0.86490936530030
H            6.23517452851275       -1.75332907329633        0.48452171903317
