58
 energy: -98.200368668677 gnorm: 0.000047858676 xtb: 6.7.1 (edcfbbe)
C            6.39614928354336       -3.55991253101557       -0.92787469316639
C            5.54800073731682       -4.62595570855893       -1.19481980991182
N            4.22858283166501       -4.53634528060339       -1.14616844775337
C            3.69325646819376       -3.37365059082258       -0.83163045275806
C            4.44544070824014       -2.23188957771735       -0.54930614403079
C            3.79570106185327       -0.96302875497811       -0.21451590087114
N            2.47023079781451       -0.93710234647213       -0.20367789181992
C            1.86080616990930        0.21294297032252        0.07926989372473
C            0.39667721991328        0.19294915240033        0.07012824682878
C           -0.26102323908507       -0.86023706728067       -0.56900324051096
C           -1.63691996952524       -0.91890976803207       -0.60106793167174
C           -2.39375917096466        0.07741993709121        0.01340735533321
N           -3.79963693776722        0.02322671482526       -0.01256388384636
C           -4.53896333217812        1.03892432825475       -0.62567873964806
C           -3.93531124299125        2.09510473098645       -1.29660217414961
C           -4.69846779195915        3.08336753532364       -1.89960686181895
C           -6.07649016309359        3.02684073583117       -1.85301040693480
C           -6.69497442256245        1.96096062853839       -1.21675507970896
C           -5.93860486296819        0.97172552282190       -0.61604012346148
O           -6.62239898304923       -0.06763942104250       -0.03790697156427
C           -5.88309680424496       -1.06310822483521        0.55051971123061
C           -6.58564242333959       -2.09976327631943        1.13645856143530
C           -5.91188637060830       -3.12560489418836        1.78217168851855
C           -4.53402203318198       -3.09477313210617        1.85241781584383
C           -3.82457138616241       -2.05853056742456        1.26460864255287
C           -4.48254235494444       -1.04086888640579        0.58542793209169
C           -1.74459957964187        1.12694340362041        0.66033463259702
C           -0.36687497213492        1.18347597128596        0.68807200398806
C            2.60922898278375        1.36145390572629        0.35319046677414
C            3.99518702485135        1.23090767517853        0.34339794500769
C            4.88761541235498        2.35607417770294        0.63161203537438
C            6.17461731475460        2.41378695409057        0.08948458029193
N            7.00073459202481        3.41263592524395        0.33457537640739
C            6.55248764093102        4.37846494918235        1.11764939626783
N            5.36608404776564        4.42848931963951        1.69569782451757
C            4.54394044890050        3.42065881669044        1.46486546212124
N            4.58332885218988        0.07283993781781        0.05496834360523
C            5.83456753341497       -2.33982534012944       -0.59899472808386
H            7.46695888511715       -3.68410292761473       -0.97715953886735
H            5.93872894275621       -5.59999546887267       -1.45927665202907
H            2.61371293195622       -3.33415850373997       -0.79607346876339
H            0.33345425397655       -1.62168150254713       -1.04827432522731
H           -2.13857717570474       -1.72971771561049       -1.10808978964279
H           -2.85931189373497        2.14200207419542       -1.35789767219944
H           -4.20182910797513        3.89442610246810       -2.40961352977749
H           -6.67479466764743        3.79519551205929       -2.31640296365820
H           -7.76909224645741        1.87441502705667       -1.18018583102598
H           -7.66229521326760       -2.08121872695970        1.08109264900268
H           -6.46819954321887       -3.93144404697798        2.23405375168943
H           -3.99547722177903       -3.87418819668157        2.36897336702892
H           -2.74909759116803       -2.03877241957131        1.34442585899326
H           -2.33097582415565        1.88987581580557        1.15098079723145
H            0.11077916621365        1.99104932205773        1.22153529930546
H            2.14370440605988        2.31559142599240        0.53250030957776
H            6.53190778727269        1.62829219521709       -0.56266084720583
H            7.22366690029704        5.20544475954285        1.30884512394720
H            3.59188549867848        3.46206035853007        1.97954709006833
H            6.44200062476087       -1.47512200899381       -0.37935306124793
