58
 energy: -98.138631436675 gnorm: 0.000082896582 xtb: 6.7.1 (edcfbbe)
C            6.12468797165331       -3.77747679810540       -1.10394327255475
C            5.23652429849623       -4.82706051617544       -1.29527020529463
N            3.92545186599142       -4.69980900974467       -1.17199549838256
C            3.43937596715271       -3.51741594372892       -0.85322897090768
C            4.23406612730077       -2.39038316354266       -0.64069522366589
C            3.63315262393812       -1.10343974097984       -0.28482019147355
N            2.31526294833083       -1.02119150828080       -0.25398576096299
C            1.72539814033931        0.15687213317714        0.09488008289255
C            0.27547255766134        0.17336766846911        0.10184266618564
C           -0.41923966315475       -0.86022817659840       -0.54472708056854
C           -1.79407880773401       -0.88148525778232       -0.57616141360932
C           -2.52066205776205        0.12590090318680        0.05533257337992
N           -3.93820063621602        0.10774872874130        0.03116844573961
C           -4.64209744438075        1.09007957871515       -0.65328358136179
C           -4.00300759794138        2.09895882638387       -1.36878709686901
C           -4.73707410713981        3.06612353327635       -2.03282816369453
C           -6.11998111481317        3.04096445263714       -2.00321865741092
C           -6.77343302503821        2.02973629241074       -1.31764081559967
C           -6.04652437112938        1.05773091605749       -0.65258576448877
O           -6.75304996468783        0.07400923321651       -0.01603639861628
C           -6.04460814085695       -0.89454956677718        0.64192003513475
C           -6.77005764312694       -1.88498778328874        1.28081591800295
C           -6.11584213280723       -2.88200813139285        1.98615599454731
C           -4.73441482680845       -2.87466769817800        2.06150964703201
C           -4.00166855847294       -1.88890948969049        1.42390449320757
C           -4.64065256724227       -0.89369261200260        0.68946500136564
C           -1.84684090303508        1.14993625587725        0.71657967038751
C           -0.47001454181541        1.17535042118961        0.73659321172384
C            2.51021386626306        1.25509501772359        0.39432159359630
C            3.90748584452399        1.12033600655969        0.32860625787840
C            4.81412867841892        2.18224800514194        0.58773829440147
C            6.21391782458938        1.96722733065146        0.50112816214108
N            7.08864165797142        2.90403902737450        0.72480084893495
C            6.65947084687361        4.11929108362066        1.05015385813797
N            5.37750262825451        4.43811909700386        1.16379633265816
C            4.47879263593950        3.51212572630976        0.94348797018210
N            4.42999100106588       -0.09637472339161       -0.01157869555363
C            5.61323533105995       -2.53653837248918       -0.77125083953443
H            7.18722608443759       -3.93067530487634       -1.21385881904391
H            5.58648766092306       -5.81672568747901       -1.55853171784295
H            2.36471725611780       -3.44643526330212       -0.75407757283966
H            0.15189206417329       -1.63442191611559       -1.03215870999004
H           -2.31939707969111       -1.67300502758866       -1.09060225918024
H           -2.92555152780637        2.11855630994000       -1.40728116432153
H           -4.21916998751184        3.84025286526983       -2.57724434866617
H           -6.69264090131199        3.79658268607133       -2.51682369085410
H           -7.84962490209399        1.97259723998124       -1.28870877672612
H           -7.84574269170543       -1.85328994637623        1.21592627008336
H           -6.68720431758537       -3.65224806840189        2.47906908852834
H           -4.21649416532642       -3.63791357243558        2.62095038821546
H           -2.92591863145565       -1.88425382701799        1.49749157042574
H           -2.41456277405500        1.91957624963136        1.21947756318954
H            0.02794185618761        1.96825032156483        1.27244180830485
H            2.06959074274302        2.20473226281798        0.64718521436715
H            6.57461275823506        0.98083489346231        0.23773822493921
H            7.39405482520738        4.88738004976595        1.23166336416155
H            3.45030419877902        3.83047928543612        1.05038260050608
H            6.25415664900386       -1.68240975595024       -0.61183466980584
