58
 energy: -98.200497539634 gnorm: 0.000044726682 xtb: 6.7.1 (edcfbbe)
C            6.15268982493289       -3.81096291515972       -0.89970136476562
C            5.28130900870251       -4.88970250678365       -0.96417470673582
N            3.97289944701235       -4.77984969298494       -0.79901368698454
C            3.47179045150690       -3.58360664295764       -0.56374550929113
C            4.24954276713734       -2.42694194130827       -0.48388914320377
C            3.63694347855544       -1.12298910119938       -0.22316637361039
N            2.31233331628547       -1.06100622052383       -0.20570091931275
C            1.73899034099497        0.11417338014508        0.04482730630512
C            0.27509420081577        0.13553129004196        0.06068731056308
C           -0.42370157138900       -0.86393206741457       -0.61862476098511
C           -1.80124266726723       -0.87371816071832       -0.63618171590329
C           -2.51667510962684        0.11346042362809        0.04010580212175
N           -3.92340637609538        0.10904406144535        0.02787426527063
C           -4.63347622469423        1.18913957291504       -0.50561005627682
C           -4.00123281038972        2.27242139595126       -1.10320405008506
C           -4.73605270740051        3.32655784429580       -1.62418344619346
C           -6.11480798270342        3.31095895168986       -1.56882069802115
C           -6.76272319506386        2.22008507056434       -1.00907490536839
C           -6.03452086696549        1.16523449019485       -0.49064260516587
O           -6.74831823967926        0.10678471053867        0.01121465506856
C           -6.03836526898733       -0.95182310514774        0.51987840723963
C           -6.77137188359683       -2.00797177950458        1.02876907578633
C           -6.12839921010249       -3.09848940965397        1.59474581563878
C           -4.75026129913480       -3.11262518841247        1.66548424040334
C           -4.01055279760693       -2.05717508466026        1.15420574940248
C           -4.63774717218267       -0.97407691957311        0.55119407056766
C           -1.82461250382413        1.10432710977754        0.73395066609190
C           -0.44548923288786        1.11707632108500        0.74054910841497
C            2.51856487406852        1.25458198636490        0.25728212632008
C            3.90029915786755        1.09379148320881        0.20593228142449
C            4.82697597353189        2.20969849528705        0.41006125168870
C            6.11389612120030        1.99319116475326        0.91113422818397
N            6.97146877856504        2.97658654213616        1.10544125598059
C            6.55541198432363        4.19660350838009        0.81308039190935
N            5.37262264041259        4.52272829282744        0.32437673690330
C            4.51855252749116        3.53729099691823        0.11315482353122
N            4.45391875653550       -0.09487616384348       -0.02096541987332
C            5.62692499161529       -2.55526455907798       -0.65671619383782
H            7.21335444349327       -3.95239161659939       -1.03924955912976
H            5.64340127840483       -5.89127125985548       -1.15685404375338
H            2.40101972223304       -3.52710162616067       -0.42638121677051
H            0.13915235869833       -1.62024725128912       -1.14265083148348
H           -2.33592832597012       -1.63885708102199       -1.17912833122139
H           -2.92489763654054        2.28988157815278       -1.17217754635379
H           -4.21680273406408        4.15703633757831       -2.07723751182789
H           -6.69106823232045        4.13073545521389       -1.96749472026138
H           -7.83878961174388        2.16427659963030       -0.97007608373945
H           -7.84699463504031       -1.95333872733350        0.97731047845334
H           -6.70822697587259       -3.91941811976348        1.98580382683054
H           -4.23491294775684       -3.94312786622698        2.12264994040797
H           -2.93513892077513       -2.07470375165607        1.23477256380618
H           -2.37865427334400        1.85648136461598        1.27605640845846
H            0.06900890637136        1.87791595303501        1.30796619820165
H            2.07526041721795        2.21711065946354        0.44803307381212
H            6.44438934085948        0.99438406502706        1.16260014843935
H            7.25238620966848        5.00629319664588        0.98509110246924
H            3.56961718491175        3.82230779326901       -0.32424227736289
H            6.25256671957086       -1.67735348691955       -0.60198696274689
