86
 energy: -123.741967380960 gnorm: 0.000125792559 xtb: 6.7.1 (edcfbbe)
C            4.40209321323440        5.18318977676363       -0.10494172254078
C            3.58586194077080        3.92606792209891       -0.09845426430734
C            3.73783224511702        2.99479879880618        0.91992585016175
C            2.99250751490788        1.83227337668562        0.95112270026660
C            2.06506766750575        1.56780163739415       -0.05148043692757
C            1.24583509862721        0.34363188702520       -0.03749801084653
C            1.84846979637361       -0.90942656682675       -0.00851154421549
C            3.32125814158726       -1.00278924863257        0.10006314851402
C            4.13956280771468       -0.46984192543170       -0.89104749737910
C            5.51573072368950       -0.55049841301061       -0.78439585746155
C            6.09410275481331       -1.16051299355782        0.31612872204411
C            5.28767379371506       -1.68948781435760        1.31010237928948
C            3.91144412209882       -1.61322598773790        1.20226295830188
C            1.07968480094544       -2.08014377952796       -0.09119084099196
C            1.75897833337898       -3.37642904224530        0.03076220504682
C            2.81242965777112       -3.73790863952350       -0.81426708415054
C            3.47059449639171       -4.94062631416819       -0.64488882702010
C            3.09961029669757       -5.80511141836324        0.37355220496314
C            2.05578014228659       -5.45897397038443        1.21940850095788
C            1.39092237653741       -4.26141387899394        1.05117781518703
C           -0.33858678682286       -1.98404235153700       -0.21026147918602
C           -1.17183585089160       -3.04744263303297       -0.63262789077018
N           -0.68448181212919       -4.26660655844509       -1.02688727416127
C           -2.57804095138982       -2.87054444993169       -0.72774755997018
C           -3.20531021450865       -1.72472175439317       -0.31410693815854
C           -4.64937651229447       -1.55529633510725       -0.31627309953237
C           -5.48412818155396       -2.38862163289706       -1.05441564794859
C           -6.86511003269611       -2.24785823418466       -1.02500053378560
C           -7.43748483784551       -1.25816811246853       -0.24368367401651
C           -6.63524674815857       -0.40050894833400        0.48107203064679
C           -5.23232784145565       -0.51272576112970        0.45390247373108
C           -4.37515822366203        0.37876408958942        1.16542963467346
N           -4.87385075018951        1.33892284076571        2.01059883259399
C           -2.98314434756627        0.28841877978398        1.01272172997001
C           -2.38731670978162       -0.66575770500709        0.22101477686818
C           -0.95032507334916       -0.71047176005589       -0.00097823111600
C           -0.17110399586084        0.44233387841710       -0.00596006925134
C           -0.77846859896828        1.78497080004111       -0.05101440797270
C           -1.67242057315841        2.11353924585952       -1.06679798833910
C           -2.19599310984957        3.38828567209173       -1.14845294946857
C           -1.84675520157868        4.37504727194160       -0.23458749756930
C           -2.41762047785926        5.75593833148836       -0.35411412788552
C           -0.95052147249429        4.05646155394710        0.79051627266510
C           -0.53797832561621        5.08979688097698        1.79530082894639
C           -0.43387507400205        2.77297785209213        0.86764393758880
C            1.91598160030312        2.50079312344052       -1.07404985113722
C            2.65650657611283        3.67023882761263       -1.11214040814405
C            2.45274820143483        4.64983151167160       -2.22850345312292
H            4.99032346329282        5.25498620443041       -1.01955726696349
H            3.75708290122742        6.06066276494340       -0.05752296705172
H            5.07988845374223        5.20567099317706        0.74502858887160
H            4.45143083264011        3.18550092681855        1.71040335715704
H            3.11773362741215        1.13297688909453        1.76548428628935
H            3.68997018510016        0.00410732909312       -1.75232737274678
H            6.13939712954739       -0.13516146221144       -1.56339522591297
H            7.16967664082709       -1.22293214939015        0.39933747898454
H            5.73241048948330       -2.16441679397482        2.17329680483010
H            3.28413258232433       -2.02181701009503        1.98212767451581
H            3.10130630898586       -3.07274576134061       -1.61537852193456
H            4.28054787294267       -5.20460673190699       -1.31010152411472
H            3.62147398266939       -6.74106562562628        0.50849271105578
H            1.76657870200778       -6.12510108417841        2.01984517486987
H            0.58347685035317       -3.98742604474296        1.71535239537478
H            0.30128142674426       -4.34902533553942       -1.21453043277373
H           -1.30218724730095       -4.84783091219123       -1.56989631670406
H           -3.14747329125968       -3.70908764707384       -1.09886719530775
H           -5.05772825595464       -3.15798846323630       -1.67929805288191
H           -7.48644647461237       -2.91122902698452       -1.60839739954664
H           -8.51207720989075       -1.15006311752393       -0.20515644428381
H           -7.10718002867856        0.36454871349713        1.07956425488396
H           -4.23090908067291        2.06198394015207        2.29163612790391
H           -5.82936847683953        1.63154869979016        1.89296177708235
H           -2.37450515751411        1.00973844203094        1.53538626668704
H           -1.94786872105039        1.36473679096360       -1.79647877247921
H           -2.88516700706263        3.62664974799285       -1.94751073392125
H           -2.94687759998482        6.03679041489715        0.55628619936075
H           -3.11045130778882        5.81438757512385       -1.19009285298905
H           -1.62336787444379        6.48576809527709       -0.51124357274576
H            0.17123940662756        4.67133881326944        2.50534643852778
H           -1.40170686016265        5.46610875522376        2.34359539841662
H           -0.06737919540011        5.93720248465881        1.29779826051266
H            0.25064186282346        2.52769612339747        1.66793980512381
H            1.20403803075220        2.30043377783200       -1.86325830407719
H            1.67633466291895        4.30206215393611       -2.90568178843261
H            3.37418858488458        4.78719045747868       -2.79436066507352
H            2.15774236835381        5.62199465533400       -1.83475489983143
