86
 energy: -123.741698473043 gnorm: 0.000073871263 xtb: 6.7.1 (edcfbbe)
C            4.58300863510288        5.03518422931314       -0.03404895935785
C            3.72589647225268        3.80570365529350       -0.04984100622076
C            3.82627770745810        2.86661937471775        0.96771345445622
C            3.04198561805737        1.72978760260578        0.97908197896167
C            2.12673152701936        1.49951154534852       -0.04302058068734
C            1.26866605970870        0.30202943710531       -0.04483299092639
C            1.83185326478203       -0.96824145286583       -0.00486144630961
C            3.30003084472724       -1.10604832858972        0.11746295380400
C            4.14375721618620       -0.59599680725654       -0.86448248277734
C            5.51589373337922       -0.71585177695123       -0.74375399304800
C            6.06536576178246       -1.34292186001573        0.36195675923408
C            5.23382251725233       -1.85005252138481        1.34656950741957
C            3.86151004525641       -1.73473189694331        1.22450279621725
C            1.02722655175964       -2.11596057172187       -0.08787827499411
C            1.66617937824208       -3.43155871456180        0.04024278858418
C            2.71607069511908       -3.82429220616659       -0.79551277708282
C            3.33570393426147       -5.04663636445297       -0.62207938130713
C            2.92938588086893       -5.90092526383941        0.39155107063244
C            1.88945378385720       -5.52366225874170        1.22894066242061
C            1.26316335474730       -4.30617946957819        1.05669416669075
C           -0.38680048010402       -1.97651611247593       -0.21098324477809
C           -1.25153611817363       -3.01896534000993       -0.62301599895786
N           -0.79999842756506       -4.25327436275508       -1.01412412985775
C           -2.65312499471487       -2.80596246407586       -0.70769764780072
C           -3.24672112916359       -1.63828875114100       -0.30577524858712
C           -4.68594896663696       -1.42976463604775       -0.30251004999349
C           -5.55217284638577       -2.26407949187251       -1.00312425576441
C           -6.92654972319378       -2.06825546466795       -0.98430445560813
C           -7.46121155229111       -1.01227606015564       -0.26553100153250
C           -6.62767572543896       -0.15718207780694        0.42655689089120
C           -5.23276717408359       -0.34108256941985        0.42783641146177
C           -4.34748107120609        0.52514533567722        1.13723599364010
N           -4.82244070066050        1.55717189853308        1.90639097399435
C           -2.96077790371474        0.39931888661719        0.97178736845690
C           -2.39572559730548       -0.58866964725049        0.19770830921560
C           -0.96056607329376       -0.68275323856248       -0.01911073886906
C           -0.14520652915436        0.44562338198264       -0.03199532476381
C           -0.71234016737089        1.80413392809080       -0.10694103575110
C           -1.58305161794127        2.13769590044904       -1.14105487640042
C           -2.07517674477201        3.42262143327481       -1.24994690484520
C           -1.71729311299584        4.41438854734235       -0.34529271159783
C           -2.25728693640474        5.80487141341069       -0.49179894656100
C           -0.84349621739729        4.09123654089669        0.69741608895439
C           -0.42471707134344        5.12982164096284        1.69432378550848
C           -0.35670726057700        2.79808660311152        0.80101988014010
C            2.02909308835259        2.44015466344704       -1.06465638852399
C            2.80924485758733        3.58424411261561       -1.08302591901975
C            2.66130400129787        4.57411480655578       -2.19909983468773
H            5.19239200144934        5.09099193161793       -0.93579202989489
H            3.96610152405213        5.93305529709596        0.00378742202540
H            5.24302571859461        5.03222441683164        0.83014223786224
H            4.52976836382126        3.03044903876607        1.77314758340732
H            3.12701742024549        1.02405665861055        1.79312758968083
H            3.71735248362121       -0.10834627170334       -1.72985663417228
H            6.15904252641717       -0.31748344866647       -1.51575622527965
H            7.13782981219168       -1.43554696145808        0.45656662196336
H            5.65576956498653       -2.33802632619640        2.21393345679984
H            3.21517251644799       -2.12648366426085        1.99744372875716
H            3.03233326645357       -3.16761394216492       -1.59327846111317
H            4.14324422351126       -5.33423676509279       -1.28043209829696
H            3.42084177157492       -6.85280268324183        0.52933117879193
H            1.57299897848184       -6.18157560387840        2.02590305965702
H            0.45887004317119       -4.00862704253347        1.71452192365400
H            0.18129092494972       -4.36075364191042       -1.21246049385827
H           -1.43678999013525       -4.81757116926210       -1.55317486121407
H           -3.24681107248905       -3.63471548151754       -1.06239300440622
H           -5.15679566573347       -3.07722204938032       -1.59174877956329
H           -7.57224559817602       -2.73533368104986       -1.53631083485173
H           -8.52969895319385       -0.85101178762283       -0.25059692932338
H           -7.06316561316440        0.67513046871255        0.95892670176228
H           -4.15202959379017        2.03085354584420        2.48962544094725
H           -5.75907920773354        1.49843039965112        2.26817884836468
H           -2.32977327397046        1.11167627162623        1.47987105207725
H           -1.86583342922697        1.38383120406516       -1.86272294106978
H           -2.74767140613506        3.66410222397186       -2.06196092661689
H           -2.81070419928670        6.09990417347146        0.39948283664382
H           -2.92254220420346        5.86972614480520       -1.34935141042953
H           -1.44558425510183        6.51955206472873       -0.62783185258884
H            0.26128251451906        4.70610589873717        2.42393179533613
H           -1.28993673179051        5.53412734505117        2.21963792575485
H            0.07480549361914        5.95853325565345        1.19352137247969
H            0.31010643509769        2.54917466449314        1.61529437096489
H            1.32670183297226        2.26670030726778       -1.86857320312866
H            1.88724098061264        4.25548239221960       -2.89305437039504
H            3.59818086432909        4.68210589967670       -2.74568852556376
H            2.39172923963148        5.55431636279065       -1.80713966879858
