86
 energy: -123.811691744041 gnorm: 0.000112534236 xtb: 6.7.1 (edcfbbe)
C            4.95028602086170        4.09085400520844        0.13108996987783
C            3.93247444417229        2.99103999508643        0.10599345925274
C            3.80459628658685        2.12871071136236        1.18586510735376
C            2.87051663031956        1.11022619540817        1.18753637822413
C            2.03307172262469        0.93209312932881        0.09400661524890
C            1.02128288858547       -0.14674753739326        0.07836536885155
C            1.44800380178736       -1.48580682625211        0.13784309121907
C            2.88349230923712       -1.78517803804901        0.34056118520228
C            3.82258720859219       -1.41297948543293       -0.61522111242786
C            5.16333631486230       -1.69356821659861       -0.42736412462808
C            5.58405995953694       -2.34539035358359        0.71976320368059
C            4.65630660367133       -2.71433863851889        1.67916797649699
C            3.31466159860988       -2.43699626075942        1.49072654976006
C            0.53967300759103       -2.51369735432441       -0.04864330067081
C            1.07816875959059       -3.89182892637347        0.03969742607815
C            1.98986318965546       -4.37515687152634       -0.89595647738656
C            2.54223968976749       -5.63466802547897       -0.74851177469988
C            2.20181249424839       -6.42302292041525        0.33865767954109
C            1.29944611034820       -5.94951656411705        1.27741588220191
C            0.74147283533418       -4.69233265716021        1.13151186285904
C           -0.83529429188083       -2.22789410384052       -0.23629703031171
C           -1.79783839056569       -3.19947029271239       -0.67794151693002
N           -1.41051682774768       -4.42258296819611       -1.19082275417458
C           -3.12667613224882       -2.86478598317025       -0.74002209285989
C           -3.62523449923410       -1.62733325982685       -0.28904549517468
C           -5.03365619214393       -1.34059755503326       -0.22442582870176
C           -6.00263969560535       -2.22294847706981       -0.73628566166942
C           -7.34410688851315       -1.94945739406695       -0.66473266847790
C           -7.78579920972407       -0.77097867538310       -0.06201681969403
C           -6.87063040162375        0.11502109693348        0.44244889782927
C           -5.48804458611691       -0.13488956045345        0.37060279885685
C           -4.52189530348111        0.77760013820184        0.90358385274925
N           -4.92226366639296        1.88792402853795        1.63586132247889
C           -3.18669080593701        0.50971860575326        0.76356765464980
C           -2.70205680837429       -0.65154606565813        0.12775915797498
C           -1.29060133903000       -0.89772142746575       -0.02634571564790
C           -0.33263650459102        0.14596527327090        0.01744016157857
C           -0.71136761951692        1.56597104530844       -0.14423399684569
C           -1.41408241192273        1.96533925360865       -1.27635596762000
C           -1.68761512205187        3.30325768486701       -1.48605246789373
C           -1.26917808110124        4.27724589006300       -0.58905892644210
C           -1.56309801519840        5.72369629742893       -0.84884139853863
C           -0.56722783537081        3.88446868006331        0.55531868011976
C           -0.09007088005372        4.90128168084560        1.54752093299150
C           -0.30084710104495        2.54005517369962        0.76015186019699
C            2.16414632500944        1.79052630744524       -0.99099439819919
C            3.09541187557233        2.81636852337446       -1.00078739775399
C            3.19271449089010        3.72876516889391       -2.18574876223048
H            5.51302528443617        4.07257829392900        1.06121561347158
H            5.64875484572073        3.98665461506151       -0.69888102225260
H            4.46765208548981        5.06342190324161        0.03632185474338
H            4.44739843321489        2.25714973675281        2.04618628153486
H            2.78106821516521        0.45943078274581        2.04577273687018
H            3.49522308663132       -0.90672037146158       -1.51211500555494
H            5.88274522163746       -1.40172643652204       -1.17912000458334
H            6.63199081371137       -2.56361246042895        0.86672826395017
H            4.97844524667841       -3.22017549578272        2.57827316279341
H            2.59280224837515       -2.72001824487559        2.24388547658187
H            2.25641042010199       -3.75939624201936       -1.74211435291885
H            3.24663628572453       -5.99918847156796       -1.48177271947626
H            2.64016310874343       -7.40302113574672        0.45600336642174
H            1.03435298922780       -6.55825085092419        2.12975106929773
H            0.04079061708988       -4.31686452709145        1.86483594205508
H           -0.50514887267397       -4.77089881747195       -0.92475685100309
H           -2.13615738794752       -5.11984753230607       -1.23667886204477
H           -3.80370071464101       -3.61537353586958       -1.11723257676737
H           -5.69328277729037       -3.13885768898884       -1.21406658982167
H           -8.06172144472666       -2.64610601087538       -1.07398652438242
H           -8.84345372160940       -0.55977861221640        0.00249451070586
H           -7.22796751125216        1.02043404362053        0.91066182357743
H           -4.18972128593768        2.56711984768845        1.77806356461192
H           -5.79697033142898        2.30766565573542        1.36454730087215
H           -2.48640233202309        1.19948897838198        1.20490047985813
H           -1.73845838527482        1.22390835011104       -1.99284682496808
H           -2.23148504926558        3.59858455394048       -2.37310958135424
H           -2.12577781045326        5.84214556417228       -1.77162816556467
H           -0.63714976038001        6.29244075876559       -0.93167718143183
H           -2.14181036652857        6.15364146619886       -0.03154677743354
H           -0.92649007060948        5.46868424552312        1.95539138013529
H            0.58785323119709        5.60801717553722        1.06993980417624
H            0.43730066189289        4.41888968196060        2.36674278467873
H            0.23334357467350        2.23708410000018        1.65001418876837
H            1.51965353599287        1.65131329256005       -1.84831035143393
H            2.45473266549639        3.46020127017386       -2.93761428792261
H            4.18451462538880        3.67390548187567       -2.63427090788518
H            3.02128166746900        4.76238319037958       -1.88675140460578
