  72
  -125.171768900000       0.359969765216818      !
 N         -1.9813887864       -8.2253500417        0.1345889993
 C         -1.4395219987       -7.2156246286        0.0976433132
 C         -0.7290938828       -5.9922419818        0.0479189124
 N         -1.4055561459       -4.8556978381        0.1071477681
 C         -0.7224470367       -3.7131742691        0.0584595634
 C         -1.4289661386       -2.4695567618        0.1168960592
 C         -2.8278627655       -2.4605593725        0.1919983222
 C         -3.5310924824       -1.2898416977        0.2625375554
 C         -2.8527701200       -0.0568912025        0.2697608691
 N         -3.5496739255        1.1300320212        0.3388326711
 C         -2.9343261620        2.3961965854        0.2478433523
 C         -1.9319138818        2.7879167972        1.1302611875
 C         -1.3506878976        4.0372764013        1.0160037703
 C         -1.7804056418        4.9202584459        0.0375913510
 C         -2.8079861326        4.5621551060       -0.8145613729
 C         -3.3865601663        3.3071326249       -0.7053724487
 S         -4.7368016061        2.8578725619       -1.7637865433
 C         -5.6518541425        1.9406494903       -0.5521448654
 C         -7.0365080450        1.9997333094       -0.5347333185
 C         -7.7390667816        1.3147968119        0.4393923985
 C         -7.0574415732        0.6048683556        1.4155030914
 C         -5.6755893394        0.5493496926        1.4010288538
 C         -4.9600579084        1.1843751957        0.3912029546
 C         -1.4652986472       -0.0641201851        0.1301248980
 C         -0.7293037098       -1.2436862577        0.0666343604
 C          0.7232362472       -1.2491339836       -0.0528232020
 C          1.4685290255       -0.0753929939       -0.1158241753
 C          2.8564129157       -0.0791403409       -0.2519188124
 N          3.5615046196        1.1027430209       -0.3240504126
 C          2.9521659160        2.3732562505       -0.2576288918
 C          1.9585697116        2.7559598265       -1.1539681260
 C          1.3850857193        4.0109422496       -1.0658313304
 C          1.8137945394        4.9080756146       -0.0998344295
 C          2.8321026323        4.5578174252        0.7666266926
 C          3.4029238321        3.2972322170        0.6836044358
 S          4.7418315854        2.8562463282        1.7598533654
 C          5.6611474726        1.9165380825        0.5686380449
 C          7.0460287074        1.9698052056        0.5597253858
 C          7.7522067744        1.2682512213       -0.3998750050
 C          7.0740404471        0.5481147238       -1.3709138095
 C          5.6919547715        0.4986598561       -1.3651294691
 C          4.9722899242        1.1497692077       -0.3684911750
 C          3.5254751050       -1.3170419193       -0.2369322132
 C          2.8128293118       -2.4822467344       -0.1696006233
 C          1.4135222248       -2.4802645476       -0.1024133668
 C          0.6968678609       -3.7184616764       -0.0526167483
 N          1.3707768089       -4.8658224195       -0.1115064136
 C          0.6850962236       -5.9974851208       -0.0633375998
 C          1.3862294409       -7.2256248186       -0.1255757186
 N          1.9188759364       -8.2401499838       -0.1714657493
 H         -3.3409486974       -3.4092862285        0.1878532036
 H         -4.6082515901       -1.3176597910        0.2866009021
 H         -1.6159030270        2.1063213431        1.9058840939
 H         -0.5649802877        4.3229938109        1.6984111313
 H         -1.3305867206        5.8968907172       -0.0488732024
 H         -3.1706410074        5.2442736336       -1.5679006280
 H         -7.5485846955        2.5787074638       -1.2874731695
 H         -8.8171215525        1.3510223550        0.4474298490
 H         -7.6021338642        0.0952159537        2.1951469626
 H         -5.1394299881        0.0096013041        2.1674383617
 H         -0.9578427048        0.8812569269        0.0495615028
 H          0.9684803746        0.8742013448       -0.0381283766
 H          1.6433288169        2.0626157260       -1.9194405845
 H          0.6059525461        4.2897124127       -1.7585945528
 H          1.3700371634        5.8890602808       -0.0339537436
 H          3.1937235586        5.2505632789        1.5107197246
 H          7.5553921586        2.5572182029        1.3077140877
 H          8.8304805454        1.2991918944       -0.4006936603
 H          7.6217596067        0.0252417710       -2.1396544390
 H          5.1589621779       -0.0484397435       -2.1284289732
 H          4.6024880712       -1.3531670416       -0.2537381404
 H          3.3183749025       -3.4349721844       -0.1622347850
  72
  -125.171679350000       0.327424892979726      !
 N         -1.9789118529       -8.2504891609        0.1599534114
 C         -1.4337659272       -7.2421705826        0.1202171071
 C         -0.7241535654       -6.0182292114        0.0716272284
 N         -1.4052253188       -4.8830398621        0.0964703029
 C         -0.7241064163       -3.7392347545        0.0530163609
 C         -1.4361236243       -2.4976281529        0.0892409891
 C         -2.8366889426       -2.4872057913        0.1231787732
 C         -3.5411391943       -1.3162566023        0.1917293212
 C         -2.8614070019       -0.0857027240        0.2498984617
 N         -3.5467577060        1.1065395065        0.3396166098
 C         -2.9020268325        2.3609088072        0.3741161317
 C         -1.9392472777        2.6604117726        1.3338671427
 C         -1.3315150352        3.9020302989        1.3486208688
 C         -1.6980635042        4.8693052098        0.4258844451
 C         -2.6815225441        4.5991560175       -0.5067551073
 C         -3.2831894362        3.3504473748       -0.5298991350
 S         -4.5724466337        3.0049509304       -1.6977379686
 C         -5.5751010204        2.0253139799       -0.6107006144
 C         -6.9564991851        2.1180488197       -0.6701425825
 C         -7.7306079159        1.3879753839        0.2125730497
 C         -7.1233849584        0.6009120278        1.1783325552
 C         -5.7445130977        0.5121438931        1.2413417240
 C         -4.9562224440        1.1903485712        0.3174804821
 C         -1.4715970891       -0.0933245310        0.1369480759
 C         -0.7360684871       -1.2716028098        0.0642669957
 C          0.7165518167       -1.2740243533       -0.0450885506
 C          1.4542855699       -0.0973229166       -0.1219717409
 C          2.8413108305       -0.0932353079       -0.2631132976
 N          3.5326491233        1.0947570242       -0.3603023421
 C          2.9039511136        2.3574271439       -0.3215653180
 C          1.8977524947        2.7021234945       -1.2195382267
 C          1.3007212744        3.9474957832       -1.1543217119
 C          1.7212586184        4.8744430812       -0.2135056614
 C          2.7519676009        4.5626377868        0.6526889583
 C          3.3439880875        3.3104432761        0.5951699448
 S          4.6969751536        2.9174421289        1.6720629044
 C          5.6237261237        1.9640720639        0.4976732343
 C          7.0071812110        2.0425446673        0.4762919492
 C          7.7191041852        1.3292111365       -0.4702376234
 C          7.0472352123        0.5704236469       -1.4157229985
 C          5.6663300811        0.4958089502       -1.3978973767
 C          4.9420096960        1.1610641367       -0.4141905140
 C          3.5180819663       -1.3265629002       -0.2283153833
 C          2.8123416992       -2.4954935440       -0.1426997322
 C          1.4125955325       -2.5020858559       -0.0795932939
 C          0.6980693639       -3.7415120136       -0.0233821501
 N          1.3762964691       -4.8877444490       -0.0468422818
 C          0.6926185871       -6.0204876706        0.0015576645
 C          1.3982396440       -7.2474657066       -0.0189263970
 N          1.9401897653       -8.2577076648       -0.0340288101
 H         -3.3506741609       -3.4349319459        0.0913008349
 H         -4.6184263207       -1.3431498630        0.1801242788
 H         -1.6739091614        1.9114565810        2.0651460885
 H         -0.5759484095        4.1166733216        2.0886546966
 H         -1.2330176737        5.8421362848        0.4459707758
 H         -2.9914911805        5.3455463178       -1.2216308961
 H         -7.4097860630        2.7595146211       -1.4098032094
 H         -8.8062122458        1.4501020049        0.1595828511
 H         -7.7242550674        0.0565704109        1.8903237142
 H         -5.2681923140       -0.0840858869        2.0051740757
 H         -0.9624858405        0.8532447831        0.0876481389
 H          0.9480534642        0.8495479127       -0.0563624659
 H          1.5904733689        1.9864478775       -1.9675049685
 H          0.5101624255        4.1961270838       -1.8456021011
 H          1.2622817048        5.8493395513       -0.1691047609
 H          3.1068722046        5.2790702742        1.3772271066
 H          7.5110117111        2.6595167425        1.2039606161
 H          8.7965253150        1.3808805498       -0.4810293597
 H          7.5988814299        0.0373272877       -2.1745339721
 H          5.1381783614       -0.0807664882       -2.1425906377
 H          4.5954099648       -1.3560162306       -0.2464255855
 H          3.3244025830       -3.4445708594       -0.1213842404
  72
  -125.171635580000       0.312605341803456      !
 N         -1.9747225636       -8.2428367061        0.1554765445
 C         -1.4309669872       -7.2335989490        0.1306743488
 C         -0.7230890607       -6.0083225158        0.0964822437
 N         -1.4061631906       -4.8744260132        0.1293416990
 C         -0.7273207342       -3.7291706039        0.0916405544
 C         -1.4413316920       -2.4888530413        0.1308346083
 C         -2.8419323337       -2.4835657443        0.1583068168
 C         -3.5510412553       -1.3149310577        0.2127582289
 C         -2.8763800803       -0.0813617361        0.2645292155
 N         -3.5696661235        1.1081140173        0.3281891408
 C         -2.9339085948        2.3672778155        0.3493892082
 C         -1.9928899880        2.6928568834        1.3219847138
 C         -1.3951918474        3.9394709530        1.3246685166
 C         -1.7489563567        4.8850583602        0.3746655765
 C         -2.7110032615        4.5887577602       -0.5724325648
 C         -3.3037310690        3.3355915631       -0.5820425213
 S         -4.5668046594        2.9574452388       -1.7680965090
 C         -5.5846334478        1.9936615584       -0.6809774082
 C         -6.9650871755        2.0755083708       -0.7701493615
 C         -7.7520763801        1.3585563148        0.1119832531
 C         -7.1593191149        0.5960766216        1.1060128666
 C         -5.7814199788        0.5182900045        1.1985250249
 C         -4.9790638555        1.1826676732        0.2767595423
 C         -1.4850121731       -0.0844452865        0.1695455249
 C         -0.7445364819       -1.2607025813        0.1077102792
 C          0.7085344453       -1.2600263835       -0.0008516031
 C          1.4454162149       -0.0818674694       -0.0727796596
 C          2.8301473139       -0.0771063688       -0.2346040042
 N          3.5275558763        1.1070981060       -0.3312358954
 C          2.9225657826        2.3769735268       -0.2203593154
 C          1.8809136443        2.7705109742       -1.0552452782
 C          1.3071170172        4.0205722104       -0.9133336075
 C          1.7840181448        4.9030244217        0.0432466014
 C          2.8545545221        4.5461006288        0.8411877001
 C          3.4260955631        3.2906861692        0.7041979493
 S          4.8366468254        2.8463832467        1.6829710885
 C          5.6787458450        1.9271585141        0.4206208750
 C          7.0584940275        1.9964593134        0.3100659741
 C          7.6997467083        1.3069439264       -0.7024881049
 C          6.9608238878        0.5775890477       -1.6210010238
 C          5.5837392625        0.5116075851       -1.5136252242
 C          4.9317764676        1.1577312461       -0.4683824513
 C          3.5076047706       -1.3107483227       -0.2232825600
 C          2.8042889453       -2.4802124452       -0.1322259729
 C          1.4054996843       -2.4872076784       -0.0492625709
 C          0.6943676544       -3.7282901237        0.0094451921
 N          1.3748883022       -4.8729998591       -0.0180155734
 C          0.6936246749       -6.0074463246        0.0277032189
 C          1.4030952379       -7.2322139268        0.0047113531
 N          1.9483185658       -8.2407615397       -0.0124123488
 H         -3.3520690771       -3.4334469395        0.1290428580
 H         -4.6280371526       -1.3462272439        0.1928021518
 H         -1.7365994171        1.9600638590        2.0726309627
 H         -0.6570592855        4.1747627213        2.0759501335
 H         -1.2900999817        5.8611691739        0.3830848667
 H         -3.0110355077        5.3179862103       -1.3089960402
 H         -7.4074948571        2.6980619028       -1.5322133741
 H         -8.8267400558        1.4117037064        0.0358421109
 H         -7.7708985641        0.0620617661        1.8167249507
 H         -5.3167187662       -0.0589952969        1.9837789440
 H         -0.9787584914        0.8638538597        0.1208464054
 H          0.9398188359        0.8637567841        0.0117395838
 H          1.5289787029        2.0912491318       -1.8172501667
 H          0.4901828018        4.3070644421       -1.5576989838
 H          1.3395055919        5.8797926285        0.1516323671
 H          3.2569544864        5.2298694188        1.5724325474
 H          7.6151118765        2.5880243594        1.0201875521
 H          8.7743048410        1.3535585564       -0.7848236587
 H          7.4567393331        0.0615708564       -2.4285454708
 H          5.0019900102       -0.0444167166       -2.2337101828
 H          4.5845582906       -1.3382700083       -0.2622187467
 H          3.3165234080       -3.4293445154       -0.1233777239
