74
 energy: -85.311526746151 gnorm: 0.000032952217 xtb: 6.7.1 (edcfbbe)
C            9.36181218337400       -0.98859007730713       -0.49359548655632
C            8.26635694940886       -0.17043310135972        0.18855374511454
C            8.69124596580350        1.29381074585167        0.27227897103917
C            6.94403590266561       -0.33809223391036       -0.56797082021801
C            5.73925069590292        0.26191114979970        0.15396901700678
C            4.43631000294409       -0.05515596552735       -0.57905797955386
C            3.19474546664399        0.54363784062158        0.10570406942941
C            3.12295750467376        2.03704253210628       -0.21137738916608
C            1.93261214474492       -0.21201126851590       -0.34592222497296
C            1.99454756288892       -1.71591622515706        0.02961649880592
C            0.56088234382346       -2.16220652869089        0.36349620368586
C           -0.29120359537260       -0.99852699501887       -0.13134760082796
C           -1.73919260542928       -0.93232723461462        0.33713637714350
C           -2.48708133267903       -2.22518995095250       -0.11166073428702
C           -3.84783912547062       -1.87220495713793       -0.59137381922494
C           -4.53799711066516       -0.85778689423329        0.19260988841471
C           -5.99978151521575       -0.92855247222039        0.45159461193264
C           -6.73388988059337        0.00382536835867       -0.54159694699955
O           -8.12799808527536       -0.01465561828307       -0.34515040779342
C           -6.15580624330171        1.41758609661344       -0.43534167773170
C           -4.65376394983628        1.43743609901864       -0.70928482911604
C           -3.86650604689490        0.49690881486069        0.23439454744215
C           -3.91296696965450        1.05216821920830        1.66751389872300
C           -2.40313208981309        0.32608315286647       -0.26352089274602
C           -1.55314721942435        1.57884545300942       -0.02185974301814
C           -0.10176683193792        1.42560177113670       -0.48287136661904
C            0.56021489978624        0.23882371435638        0.21874111270981
C            0.66348736828182        0.48201263753027        1.72642644864950
H            9.51620848954081       -0.63787168436959       -1.51201416372921
H            9.09060260803587       -2.04135780778402       -0.53124275835478
H           10.30159407157146       -0.89665485457767        0.04635348566423
H            8.13233727921751       -0.55285021995811        1.20717092868072
H            8.77934206833424        1.71946526891371       -0.72532332000428
H            9.65654441483053        1.37879002732639        0.76676938154233
H            7.97153613126829        1.88057452530351        0.83668671138378
H            7.03722130678768        0.11872785369310       -1.55622142766145
H            6.76267137805416       -1.40590806062050       -0.71634954639270
H            5.68812658866359       -0.14546797672358        1.16699683102092
H            5.86551462418691        1.34131836144590        0.23698559448964
H            4.34170793637786       -1.13912285186244       -0.63741431759814
H            4.49361394882717        0.32370918633333       -1.60219113010642
H            3.31294812692858        0.42000233134220        1.18659757893811
H            2.81767719515711        2.19100993280909       -1.24397912002873
H            4.09663349658182        2.50006811490298       -0.07248737301458
H            2.42234692546701        2.55102388663793        0.43909735042765
H            1.87930950463050       -0.12567513545502       -1.43725727171458
H            2.65562143323625       -1.86779042255556        0.88309432631076
H            2.38851579414329       -2.30137793841522       -0.80054885574361
H            0.30742203398294       -3.10193284159353       -0.12501356449173
H            0.42611053115398       -2.30052367239568        1.43634480462217
H           -0.31686691268290       -1.05372050706845       -1.22734416760325
H           -1.77846525954670       -0.87350858609997        1.42655033972333
H           -1.93190790641911       -2.72786264942790       -0.90388234372657
H           -2.53989931880490       -2.90581349402986        0.74280049557257
H           -4.01303432743361       -1.88263303745928       -1.66565873334187
H           -6.25156166281598       -0.60408141253047        1.46750910936216
H           -6.36060865483516       -1.94975211939114        0.32427500553307
H           -6.59061784303165       -0.37739195561734       -1.55787484218758
H           -8.31729359413167        0.31561197859987        0.54114201238370
H           -6.36265435315742        1.81512180842062        0.56179953764244
H           -6.66502857599126        2.06055662990637       -1.15743301283797
H           -4.28634825527491        2.46074949883199       -0.60946126318280
H           -4.48329400233144        1.11734390684553       -1.73981881801535
H           -3.64293315177621        2.10510471749262        1.68343584618314
H           -3.23303279152712        0.50211765477816        2.31246948044943
H           -4.90940483603579        0.95786264801110        2.08677082025172
H           -2.44749963350531        0.16775446529286       -1.34824882772268
H           -1.55009914442409        1.83220387008601        1.03614751987930
H           -2.00035798942587        2.41693407609354       -0.56059332067259
H           -0.07689715687671        1.26365347123400       -1.56346883224348
H            0.42255739959056        2.35776472880372       -0.27588998647306
H            1.12779060351322        1.44573672500231        1.92060181378008
H            1.26495889431818       -0.28533760034799        2.20318446211540
H           -0.31310445676606        0.48235612143254        2.19957667512074
