  74
        -85.30039807
 C          8.4620426461       -1.8704916738       -0.5529404778
 C          6.9653390732       -1.6953489762       -0.8056449292
 C          6.2202152453       -2.9621936890       -0.3914169989
 C          6.4512317214       -0.4618304024       -0.0551151238
 C          5.0252085395       -0.0610986411       -0.4289540386
 C          4.6138367896        1.2214628943        0.2917037716
 C          3.2153222946        1.7600978248       -0.0638737031
 C          3.1703301871        2.1472079869       -1.5429868755
 C          2.1099436230        0.7635480972        0.3184907112
 C          2.1830992687        0.3657687500        1.8129231304
 C          0.7434678131        0.0846723677        2.2794227572
 C         -0.0613594006        0.1084848352        0.9839490744
 C         -1.5739636494        0.2752681561        1.0752440915
 C         -2.1884350981       -0.8249165437        1.9782271339
 C         -3.6697216872       -0.7355754311        1.8924271715
 C         -4.2027779666       -0.7798104500        0.5564680401
 C         -4.7836906567       -2.0100692111       -0.0495926434
 C         -6.0189209168       -1.6224578317       -0.8852370322
 O         -7.1014427685       -1.3223594151       -0.0318799185
 C         -5.6969843804       -0.4340262006       -1.8181988968
 C         -4.2232738460       -0.0258496017       -1.8056011362
 C         -3.7066129603        0.2826422768       -0.3917109858
 C         -4.2086935091        1.6629340032        0.0584563439
 C         -2.1436145836        0.1911652707       -0.3505153176
 C         -1.4652198691        1.2183407488       -1.2643888985
 C          0.0612523918        1.0857323126       -1.2736881222
 C          0.6324105761        1.1988757472        0.1408186004
 C          0.4245693950        2.6107565142        0.6925779077
 H          8.6507486803       -2.0192163690        0.5083699581
 H          9.0140177970       -0.9917413353       -0.8791241744
 H          8.8440006444       -2.7340876217       -1.0929533149
 H          6.8120065182       -1.5361010461       -1.8793862579
 H          6.6357720905       -3.8286493167       -0.9015584053
 H          5.1649592728       -2.8981859453       -0.6428510162
 H          6.3115714406       -3.1206480141        0.6814133860
 H          6.5045726389       -0.6503191348        1.0200823096
 H          7.1158655937        0.3783083788       -0.2731593581
 H          4.9701460828        0.0855707813       -1.5086287613
 H          4.3406300745       -0.8651020239       -0.1605297558
 H          5.3412582850        2.0019490784        0.0513100746
 H          4.6752194003        1.0505023305        1.3676431267
 H          3.0804206690        2.6710914496        0.5289446696
 H          4.0986200751        2.6379146208       -1.8287703250
 H          2.3575277912        2.8391711666       -1.7431624152
 H          3.0362895832        1.2712223769       -2.1720272019
 H          2.2489546548       -0.1338760069       -0.2927402164
 H          2.6212400420        1.1750003957        2.3973464471
 H          2.8139052507       -0.5123338620        1.9450316022
 H          0.6654233340       -0.8736330226        2.7912484812
 H          0.3907523197        0.8580019411        2.9623695952
 H          0.1217018390       -0.8451802929        0.4722718327
 H         -1.8146635752        1.2427381835        1.5207482943
 H         -1.8458000648       -1.7949983378        1.6018001344
 H         -1.8385642044       -0.7048519346        3.0033571069
 H         -4.2063926132       -0.2512647122        2.6967105491
 H         -5.0846027975       -2.7147235070        0.7274394830
 H         -4.0658897985       -2.5182736435       -0.7075023498
 H         -6.3589948267       -2.4853662283       -1.4668220379
 H         -6.7785834767       -0.6969688553        0.6303211186
 H         -6.3121913115        0.4119592352       -1.5050378185
 H         -5.9874184548       -0.6762568531       -2.8413403740
 H         -4.1063334985        0.8534688457       -2.4415843685
 H         -3.6297674676       -0.8315713238       -2.2427079833
 H         -5.2957875274        1.6706006455        0.0859940144
 H         -3.8852595372        2.4413831471       -0.6279504480
 H         -3.8505795331        1.8983160320        1.0565404357
 H         -1.8908659571       -0.8067290593       -0.7329930867
 H         -1.7304596589        2.2265175897       -0.9497739939
 H         -1.8261280454        1.0850220208       -2.2854548640
 H          0.3356277989        0.1154726239       -1.6957286772
 H          0.4657561784        1.8573664042       -1.9279660315
 H          0.8435140642        3.3428842196        0.0062173775
 H          0.9112305208        2.7296588509        1.6553825059
 H         -0.6282914363        2.8420411619        0.8187550123
