74
 energy: -85.416987522733 gnorm: 0.000057558872 xtb: 6.7.1 (edcfbbe)
C            7.10159412523837        0.61400869292598        1.16260668071360
C            6.24829343025938        1.54689996920708        0.30651732553755
C            7.14053305256369        2.57507521338217       -0.38730783260006
C            5.43440855038522        0.77502322752654       -0.73767358634958
C            4.35856637214352       -0.12964230057962       -0.13633296855082
C            3.48774545313956       -0.72661295178162       -1.24087793738686
C            2.52166368247792       -1.86929818074508       -0.88021168531051
C            3.31103040960966       -3.07580207159823       -0.35995799876330
C            1.31647241608610       -1.63321292454753        0.05140684628934
C            1.59973012385160       -1.31334565004329        1.53669798951294
C            0.33732356463268       -0.59951314540170        2.06476580928867
C           -0.66650577205647       -0.73892366413144        0.92037803580094
C           -1.90166909539825        0.15578033329988        0.91425216296666
C           -2.71920649899611       -0.07578919096163        2.18491731506228
C           -4.12960257738147        0.39427664810605        2.05687402468959
C           -4.70868493406253        0.73372623236142        0.91597109204252
C           -6.17147822514329        1.05594066363851        0.84121822436213
C           -6.90491547658311       -0.12697026916833        0.17477466585852
O           -8.05391653511063        0.30290801925790       -0.52974776272896
C           -5.97624336567816       -0.82598762375254       -0.82412803758919
C           -5.00795077272988        0.16617811829531       -1.45900116131306
C           -4.00164971794963        0.72266259498025       -0.42329147347400
C           -3.65123576414263        2.16981640749557       -0.80595937621140
C           -2.73718245721241       -0.17022323402761       -0.33875513769531
C           -1.86942742999291       -0.09364760493486       -1.60390224825575
C           -0.63496035258996       -0.99552417516570       -1.53473975431812
C            0.22103007213663       -0.61057046092215       -0.33110605685084
C            0.77351144151312        0.80706557873481       -0.50287996487160
H            7.76880749332109        0.02858293439385        0.53320566847444
H            6.48176607589802       -0.06836004377902        1.73801553534740
H            7.70661353117510        1.18946678349784        1.86003306024327
H            5.55150573577343        2.08174478949187        0.96278675835045
H            6.54409332608029        3.26935833468113       -0.97521475782877
H            7.84269842315364        2.07757365937906       -1.05321583153403
H            7.70817532937912        3.14611953439343        0.34406833548627
H            4.94844085184706        1.49650564019658       -1.40014855958105
H            6.11420851887352        0.17563271132580       -1.34809988871788
H            4.83037587708529       -0.92839972920398        0.43432846365796
H            3.75572838700325        0.46970121369156        0.54698707224479
H            4.16418487020519       -1.13974643063794       -1.99662469739277
H            2.93702584933967        0.07643841424633       -1.72691009624409
H            2.07781966659421       -2.16810170236398       -1.84011481021339
H            2.66784789480418       -3.95006801487426       -0.28512423472843
H            3.72453456218761       -2.87737900156985        0.62469896527698
H            4.12998988233016       -3.31362654359000       -1.03529857225005
H            0.80314659784094       -2.60475524395307        0.04218213862663
H            2.47732226130492       -0.68465171636148        1.65370872971128
H            1.78478056494926       -2.23342204136508        2.09080831610407
H           -0.02549751363006       -1.05167915363628        2.98706592922942
H            0.53657714119945        0.45364618638211        2.26528233175857
H           -1.03856106945332       -1.77150556238198        0.93737023475024
H           -1.60822595183212        1.20742374642656        0.89133943536141
H           -2.74199561875091       -1.14738065294372        2.41704734367011
H           -2.23784648774991        0.41996192316994        3.03192913246826
H           -4.70132423093934        0.40746611181560        2.97669736809875
H           -6.33568532218764        1.94253416831434        0.22518933970139
H           -6.57989480967566        1.24828702190523        1.83513670315627
H           -7.20609405407335       -0.85027102266233        0.95039086184460
H           -8.62387270559465        0.79149397535273        0.07328420088381
H           -6.59880116528306       -1.28802590702463       -1.59085310350138
H           -5.41965620139325       -1.61100585641966       -0.31021148767825
H           -5.58947686079330        0.98360464566009       -1.88678018268431
H           -4.47891003284168       -0.31838481922783       -2.27849778523812
H           -2.86205678682344        2.56451066989432       -0.17188431390335
H           -4.52138990369394        2.81109129511954       -0.68625122904178
H           -3.33469633591316        2.22745958662836       -1.84411397307770
H           -3.08493689905987       -1.20523872366304       -0.23239662897286
H           -1.53994264232938        0.93147300454408       -1.76205026301926
H           -2.46050462608633       -0.38622666571436       -2.47339005486401
H           -0.94936677280551       -2.03846460458547       -1.44275115344543
H           -0.06566129729560       -0.90099377627595       -2.46257759033361
H            0.02908062633043        1.55608383241859       -0.25126877851203
H            1.06757350323444        0.97564099850891       -1.53604046972554
H            1.63482759934094        0.97158977924116        0.13375434818977
