  68
        -98.67506248
 C          3.9391870448        5.0881884983       -0.1583185795
 C          2.4178565048        5.1248959919        0.0112122196
 C          2.0990625430        5.8567543065        1.3248978387
 C          1.8235373187        5.9076962561       -1.1706784796
 C          1.7955135485        3.7465005010        0.0488505929
 C          0.3931553655        3.6170292498        0.1881411733
 C         -0.2080413800        2.3947991428        0.1999934163
 C          0.5481809751        1.2044587652        0.0617210427
 C          1.9701495211        1.3101446549       -0.0011456860
 C          2.5376827540        2.5666657919       -0.0189194306
 C          2.8471084870        0.0818226445       -0.0128854070
 C          3.7497809033        0.1207866322        1.2368831480
 C          3.7149741278        0.0982301326       -1.2878108160
 C          2.0486201081       -1.1990499395       -0.0025845593
 C          2.6953273703       -2.4173479323        0.0077421663
 C          2.0287611539       -3.6417517251       -0.0417599278
 C          2.7374542753       -4.9780586688       -0.0066551533
 C          2.4417426500       -5.7398936157       -1.3085435113
 C          2.2156900360       -5.7861351846        1.1924359832
 C          4.2562316252       -4.8444124175        0.1340009425
 C          0.6192716843       -3.6022077146       -0.1568174654
 C         -0.0582642859       -2.4201419073       -0.1647748467
 C          0.6225494905       -1.1842360436       -0.0428489744
 N         -0.0744188518       -0.0100784758        0.0097580077
 C         -1.4903233940       -0.0532244012        0.0040876378
 C         -2.1875283144       -0.6018674583        1.1003332625
 C         -3.5544234479       -0.6401534279        1.0954691181
 C         -4.2716185981       -0.1473395670       -0.0142026342
 C         -5.7531994489       -0.1589772883       -0.0085650479
 F         -6.2784163774       -1.1554984655        0.7294737733
 F         -6.2918839942       -0.2765231245       -1.2381146271
 F         -6.2975865821        0.9819328302        0.5036173703
 C         -3.5749201187        0.4065363592       -1.1085133741
 C         -2.2084523396        0.4543353962       -1.0981775975
 H          4.2184881144        4.5873869948       -1.0826295696
 H          4.4164016942        4.5868243756        0.6807284550
 H          4.3224532295        6.1054655326       -0.1998958975
 H          1.0280703148        5.9713914612        1.4647497357
 H          2.4961913794        5.3003445450        2.1713323923
 H          2.5502645785        6.8465610385        1.3187628784
 H          0.7466560073        6.0123488124       -1.0757153628
 H          2.0355611748        5.3941310665       -2.1061348798
 H          2.2602245935        6.9029351823       -1.2158015361
 H         -0.2203061914        4.4972934192        0.2953757058
 H         -1.2764987275        2.3226967619        0.3257987320
 H          3.6106013847        2.6361332560       -0.0796601453
 H          4.4268753639       -0.7281323366        1.2513734143
 H          4.3426468357        1.0305131979        1.2557284335
 H          3.1372363552        0.0901474514        2.1355584065
 H          4.3635059587       -0.7721532243       -1.3235781321
 H          4.3358202053        0.9887203303       -1.3212329830
 H          3.0768363261        0.0886023136       -2.1689938773
 H          3.7714291271       -2.4180606131        0.0479792464
 H          2.9525678131       -6.7001509896       -1.3021947721
 H          2.7898281980       -5.1685531692       -2.1664733728
 H          1.3774502565       -5.9208709109       -1.4287456750
 H          2.7172730969       -6.7501932524        1.2394522728
 H          1.1466417843       -5.9620772119        1.1165691182
 H          2.4083994583       -5.2502419911        2.1196350085
 H          4.6850606356       -4.3193495504       -0.7166891435
 H          4.5202214869       -4.3206268881        1.0500051578
 H          4.7038635464       -5.8352279669        0.1741678003
 H          0.0608584889       -4.5199288594       -0.2491785684
 H         -1.1309570797       -2.4173941032       -0.2734354301
 H         -1.6262532896       -0.9717258759        1.9451908138
 H         -4.0951607088       -1.0500822229        1.9340169249
 H         -4.1312774649        0.7820961949       -1.9528790534
 H         -1.6622572604        0.8635846896       -1.9346898289
  68
        -98.67488978
 C          3.3344876926        5.1589623663        1.4332718254
 C          2.4936334254        5.1135405726        0.1472919378
 C          1.5281369690        6.3012086244        0.1688886697
 C          3.4138151161        5.2651145777       -1.0747949922
 C          1.7766324497        3.7827904937        0.0689601648
 C          0.3775582507        3.6620824912       -0.0349315183
 C         -0.2244266012        2.4376041645       -0.0824759970
 C          0.5324510028        1.2404845854       -0.0109287000
 C          1.9534567952        1.3417787221        0.0159657020
 C          2.5195637749        2.5941788767        0.0642719058
 C          2.8300970790        0.1139016575       -0.0502548859
 C          3.7477736521        0.0857715214        1.1886472569
 C          3.6803081392        0.1983669198       -1.3339280205
 C          2.0295966421       -1.1654022735       -0.0737784224
 C          2.6729530054       -2.3829662525       -0.1423621403
 C          2.0060118609       -3.6082828231       -0.1029501861
 C          2.7117932634       -4.9433814749       -0.1915820490
 C          2.1371819265       -5.7352821401       -1.3770319273
 C          2.4734790043       -5.7234427643        1.1115023023
 C          4.2228578739       -4.8069570599       -0.3981834079
 C          0.6012123171       -3.5704583266        0.0637727306
 C         -0.0737771986       -2.3888928412        0.1238536135
 C          0.6049072153       -1.1500806170        0.0110201535
 N         -0.0920121290        0.0248827551        0.0059896186
 C         -1.5069276938       -0.0216876860        0.0137741008
 C         -2.2278057660        0.4562973357        1.1282910733
 C         -3.5936976652        0.3953660452        1.1404817052
 C         -4.2885713255       -0.1287064376        0.0307848272
 C         -5.7661858468       -0.2315617943        0.0569023624
 F         -6.2127355369       -1.4239677652        0.5465668489
 F         -6.3315871573       -0.1262069884       -1.1617712931
 F         -6.3554178770        0.7023105577        0.8275468040
 C         -3.5683286317       -0.6087067573       -1.0833583968
 C         -2.2022087401       -0.5580532939       -1.0902052548
 H          4.0831276343        4.3720642875        1.4491809851
 H          2.6941404364        5.0382829882        2.3042384015
 H          3.8461285847        6.1158042117        1.5101660764
 H          0.9432647666        6.3477188175       -0.7465226454
 H          0.8545785895        6.2413999620        1.0204411611
 H          2.0938598415        7.2268611146        0.2518479112
 H          2.8324279813        5.2040762995       -1.9921639916
 H          4.1731454899        4.4884696935       -1.0999355245
 H          3.9152726326        6.2299392524       -1.0464894436
 H         -0.2429934697        4.5403202251       -0.0886315237
 H         -1.2955664730        2.3722537881       -0.1850784031
 H          3.5951629113        2.6689329822        0.0918125956
 H          4.3972116216       -0.7843834392        1.1673536477
 H          4.3700720616        0.9748204258        1.2299025528
 H          3.1452102667        0.0438970885        2.0935915721
 H          4.3530130940       -0.6510689949       -1.4084671162
 H          4.2751137879        1.1069362244       -1.3436124592
 H          3.0316349103        0.2029973629       -2.2074112945
 H          3.7469779246       -2.3836166546       -0.2206529272
 H          1.0722753984       -5.9118773256       -1.2576075263
 H          2.6353748037       -6.6988730488       -1.4581000763
 H          2.2905695523       -5.1873669995       -2.3044301421
 H          2.9845474714       -6.6827635380        1.0704200655
 H          1.4155588753       -5.9074486719        1.2748540661
 H          2.8574436404       -5.1624851202        1.9610321195
 H          4.4453984902       -4.2634873183       -1.3138125463
 H          4.6907185623       -4.3006100375        0.4431621517
 H          4.6671600213       -5.7966606710       -0.4797130644
 H          0.0454804763       -4.4898278259        0.1556853166
 H         -1.1418844106       -2.3876520055        0.2711606780
 H         -1.6834101401        0.8484752082        1.9741793751
 H         -4.1513439540        0.7491953143        1.9933525286
 H         -4.1076656296       -1.0070651116       -1.9284294380
 H         -1.6392718189       -0.9106573781       -1.9413256210
  68
        -98.67472666
 C          2.0741145853        5.8636895160        1.3867510075
 C          2.4467091220        5.1358222509        0.0850107953
 C          1.9095152842        5.9277323428       -1.1179135136
 C          3.9738920328        5.0928468386       -0.0167651862
 C          1.8166540445        3.7604400707        0.0924602784
 C          0.4064497717        3.6399341219        0.1772508777
 C         -0.1997433375        2.4206284495        0.1799074257
 C          0.5577808439        1.2268273461        0.1137141702
 C          1.9814662925        1.3240159765        0.0321190083
 C          2.5534600470        2.5789829204        0.0181944706
 C          2.8462790836        0.0903464267       -0.0592582416
 C          3.8310635731        0.0897554272        1.1278541824
 C          3.6279579590        0.1379565181       -1.3882992616
 C          2.0438040735       -1.1872858926       -0.0193948400
 C          2.6761498863       -2.4109325809       -0.0837979650
 C          1.9982508284       -3.6294126604       -0.0503089073
 C          2.6934209753       -4.9710857539       -0.1195548575
 C          2.3708549850       -5.7690896774        1.1541818078
 C          4.2155244689       -4.8500646216       -0.2337908475
 C          2.1802492818       -5.7371935841       -1.3496477852
 C          0.5847497088       -3.5815981216        0.0542125079
 C         -0.0802820864       -2.3949784100        0.1063456091
 C          0.6170643241       -1.1631004813        0.0709256352
 N         -0.0655825237        0.0153086076        0.1004919877
 C         -1.4889262636       -0.0220015385        0.0687559468
 C         -2.2238037711       -0.0187715705        1.2685191163
 C         -3.5920404085       -0.0668877910        1.2324611404
 C         -4.2632213843       -0.1107602049       -0.0034868902
 C         -5.7423072916       -0.2032456746       -0.0525105379
 F         -6.1954523901       -1.4847761200       -0.1522633050
 F         -6.2815264235        0.4361998438       -1.1101299357
 F         -6.3485441857        0.2981400750        1.0391730820
 C         -3.5240272769       -0.1197252693       -1.2040311541
 C         -2.1562119158       -0.0738082883       -1.1662031541
 H          2.4364104381        5.3044229839        2.2465544851
 H          0.9984445414        5.9774565545        1.4829664923
 H          2.5247150217        6.8536466410        1.4026742710
 H          0.8309918062        6.0435902079       -1.0668311282
 H          2.3581324852        6.9183825387       -1.1424011837
 H          2.1538859072        5.4140365878       -2.0451874372
 H          4.2921535555        4.6131972139       -0.9395886143
 H          4.4092704288        4.5673493949        0.8301786939
 H          4.3644162998        6.1081615794       -0.0162051952
 H         -0.2060656836        4.5250880353        0.2373118462
 H         -1.2746159968        2.3498444204        0.2381713964
 H          3.6260940378        2.6446938463       -0.0524481812
 H          4.4898516543       -0.7723124673        1.0818835254
 H          4.4427105139        0.9871292348        1.1223872648
 H          3.2796245773        0.0534009190        2.0649665618
 H          2.9330880527        0.1416005277       -2.2255101654
 H          4.2781094157       -0.7266428192       -1.4842121087
 H          4.2391978770        1.0339118182       -1.4442534741
 H          3.7503355131       -2.4212924171       -0.1619163473
 H          2.7162099207       -5.2292224686        2.0334055143
 H          2.8684962886       -6.7359026846        1.1240777579
 H          1.3030011393       -5.9387613592        1.2560847255
 H          4.6545212621       -5.8444608974       -0.2790018560
 H          4.6346633106       -4.3393090847        0.6302711616
 H          4.4999472990       -4.3181306121       -1.1389496551
 H          1.1094355940       -5.9090383328       -1.2913693980
 H          2.3863585496       -5.1727931445       -2.2567000986
 H          2.6771616289       -6.7021562232       -1.4219768505
 H          0.0173789675       -4.4974823437        0.0922369005
 H         -1.1561650882       -2.3799659251        0.1835178731
 H         -1.6946253155        0.0178548664        2.2086045619
 H         -4.1648132993       -0.0660805525        2.1465876578
 H         -4.0470660317       -0.1571134608       -2.1466036110
 H         -1.5762643657       -0.0773716508       -2.0767147765
  68
        -98.67471525
 C          1.5214478558        6.2725014653        0.0770126525
 C          2.4842729678        5.0838235597        0.0178237504
 C          3.2807618765        5.1790047060       -1.2936501230
 C          3.4463953337        5.1855690041        1.2126581604
 C          1.7670158026        3.7521527202        0.0660813557
 C          0.3708795414        3.6285594927        0.2038235173
 C         -0.2322869931        2.4042276917        0.2164675177
 C          0.5206155928        1.2093054698        0.0773759541
 C          1.9412728734        1.3106769778        0.0242406553
 C          2.5080946654        2.5628554187        0.0067305721
 C          2.8164136925        0.0800329639        0.0296371184
 C          3.6973637585        0.1226663609        1.2943690984
 C          3.7024391236        0.0873396327       -1.2320149216
 C          2.0118484248       -1.1980135634        0.0340610335
 C          2.6499961171       -2.4159504589        0.0560113519
 C          1.9789872817       -3.6455083928        0.0027607726
 C          2.7713909999       -4.9338292666        0.0579409397
 C          1.8760437597       -6.1752955234        0.0358237862
 C          3.5968589539       -4.9650795546        1.3545027449
 C          3.7139198664       -4.9988530910       -1.1548801727
 C          0.5788049521       -3.6031080419       -0.1389938013
 C         -0.0933814818       -2.4149022218       -0.1625656474
 C          0.5884510839       -1.1789537524       -0.0257688499
 N         -0.1072505358       -0.0029625773        0.0186235209
 C         -1.5213553563       -0.0396410468       -0.0042937233
 C         -2.2257215734        0.5086873719       -1.0972838329
 C         -3.5916778399        0.4712232819       -1.1228967252
 C         -4.3049758764       -0.0986069943       -0.0466762576
 C         -5.7840875863       -0.1623479738       -0.0979371532
 F         -6.2519183359       -1.2410413586       -0.7893216672
 F         -6.3430416097        0.9037939904       -0.7066107926
 F         -6.3612430333       -0.2484156433        1.1145291519
 C         -3.6021879578       -0.6484026748        1.0452893169
 C         -2.2354605408       -0.6209430413        1.0652821174
 H          0.9679926649        6.2822781930        1.0128965046
 H          0.8192689036        6.2482270615       -0.7528644392
 H          2.0862741307        7.2001149087        0.0125279532
 H          2.6104441784        5.0948674993       -2.1462735711
 H          3.7931262455        6.1368578817       -1.3499439317
 H          4.0253022404        4.3911818078       -1.3666739867
 H          2.8973090911        5.0844797352        2.1463195032
 H          3.9456329196        6.1519431251        1.2077418298
 H          4.2071772593        4.4106222193        1.1787519202
 H         -0.2458583652        4.5046613644        0.3112851662
 H         -1.3002464322        2.3353526928        0.3463065885
 H          3.5828472439        2.6378246113       -0.0445364698
 H          4.3683360136       -0.7306157350        1.3280722237
 H          4.2960714115        1.0284494018        1.3170505043
 H          3.0696730594        0.1032567148        2.1827633393
 H          3.0777207352        0.0713426453       -2.1226220970
 H          4.3518714877       -0.7829175052       -1.2527391757
 H          4.3239804736        0.9773839688       -1.2632317458
 H          3.7271949246       -2.4284940442        0.1077669687
 H          1.1851263929       -6.1728648000        0.8755376597
 H          2.4927629316       -7.0685708493        0.1097130466
 H          1.3110960322       -6.2352216151       -0.8912417041
 H          4.3068562794       -4.1438463192        1.3963114308
 H          4.1533640304       -5.8973936539        1.4191983826
 H          2.9407601797       -4.8933891502        2.2193414250
 H          4.2734483357       -5.9314900145       -1.1427220053
 H          3.1413787134       -4.9506974429       -2.0785952048
 H          4.4238968987       -4.1764391021       -1.1507402973
 H          0.0133467712       -4.5135898016       -0.2422309010
 H         -1.1628987293       -2.4090353901       -0.2971929552
 H         -1.6678927299        0.9357811614       -1.9169693721
 H         -4.1372731024        0.8784487946       -1.9594877457
 H         -4.1541835800       -1.0809586400        1.8647986460
 H         -1.6860721753       -1.0239766955        1.9026985668
  68
        -98.67141991
 C          3.5384002221        4.5461851298        1.7436188317
 C          2.5530191130        4.9025045235        0.6184475329
 C          1.6032729208        5.9803523942        1.1500168349
 C          3.3296516250        5.4785864457       -0.5775003278
 C          1.8170622503        3.6582117314        0.1776613238
 C          0.4177855767        3.6147425715       -0.0045501996
 C         -0.2239531319        2.4452556426       -0.2839820671
 C          0.5062502929        1.2241489005       -0.3588244593
 C          1.9380673245        1.3009037785       -0.4337784228
 C          2.5436294116        2.4918026718       -0.1489791506
 C          2.6514300804        0.0834516161       -0.9731674373
 C          4.1636736834        0.1333746836       -0.7555983608
 C          2.3852920172        0.0676047442       -2.5002397238
 C          2.0075926641       -1.1621778305       -0.4107026545
 C          2.7083909936       -2.3246027726       -0.1674574651
 C          2.1006037445       -3.4967248756        0.2837947621
 C          2.8792376535       -4.7503059494        0.6270586877
 C          2.7064320777       -5.0343507174        2.1278587246
 C          4.3767637069       -4.6219924361        0.3341309945
 C          2.3333173290       -5.9325657936       -0.1875617458
 C          0.7047309493       -3.4745547974        0.4589551384
 C         -0.0227043228       -2.3393342137        0.2308087176
 C          0.6028059095       -1.1529418095       -0.2005167721
 N         -0.1187929547        0.0144567765       -0.3052931936
 C         -1.5248063921       -0.0477271970       -0.2034603928
 C         -2.2636485738       -0.7189723297       -1.2018364013
 C         -3.6287550085       -0.7534766767       -1.1414907858
 C         -4.3059143414       -0.1227128615       -0.0771523501
 C         -5.7846286469       -0.1880756747       -0.0032334792
 F         -6.3799246792       -0.1667289079       -1.2129575838
 F         -6.3312066599        0.8189195977        0.7027152465
 F         -6.2437745670       -1.3262708431        0.5904495502
 C         -3.5687400215        0.5195160353        0.9383851206
 C         -2.2036124694        0.5622751714        0.8729212405
 H          4.3056923072        3.8563862132        1.4043614168
 H          3.0082023945        4.0867296355        2.5750621402
 H          4.0317478823        5.4462000639        2.1039770795
 H          0.9665519498        6.3722058470        0.3608874016
 H          0.9778815675        5.5841372945        1.9468016778
 H          2.1812425826        6.8098364057        1.5519746142
 H          4.0539837979        4.7618411322       -0.9558151970
 H          3.8607868953        6.3796387614       -0.2787547469
 H          2.6447832354        5.7306279528       -1.3842499018
 H         -0.1644368437        4.5177882415        0.0691610240
 H         -1.2903114794        2.4314440065       -0.4419245016
 H          3.6177815843        2.5594938212       -0.1817161881
 H          4.5769683088        1.0305142637       -1.2084887724
 H          4.4030612880        0.1265962948        0.3052489244
 H          4.6470094365       -0.7132422734       -1.2351821956
 H          1.3186318304        0.0409806211       -2.7098097304
 H          2.8478180542       -0.8101389576       -2.9463126745
 H          2.8038652547        0.9605918640       -2.9589420718
 H          3.7719487639       -2.3232004051       -0.3221205348
 H          3.0754925086       -4.1951872351        2.7138068969
 H          3.2662219363       -5.9239897407        2.4074958404
 H          1.6622162109       -5.1931877051        2.3815969717
 H          4.8754229643       -5.5547221127        0.5889855458
 H          4.8277080273       -3.8304973528        0.9282386672
 H          4.5541855113       -4.4251583495       -0.7208383928
 H          2.4255939049       -5.7307441258       -1.2526032303
 H          2.8963655326       -6.8341566759        0.0433767420
 H          1.2872412220       -6.1208856259        0.0348722942
 H          0.1883537736       -4.3568814928        0.8018217130
 H         -1.0860486474       -2.3378114354        0.4113871387
 H         -1.7347655031       -1.1869117466       -2.0186876820
 H         -4.2004818798       -1.2516355593       -1.9087595721
 H         -4.0928390697        0.9766756445        1.7630779611
 H         -1.6270769818        1.0350450425        1.6536535496
