113
 energy: -157.317425276941 gnorm: 0.000076243452 xtb: 6.7.1 (edcfbbe)
C            5.52310649270318        3.64822242254623        4.44315524325264
C            5.78808939359823        3.83059573141644        2.94108607319515
C            4.87316167376740        4.93007944485803        2.38122032287033
C            7.23997401257396        4.28717234102152        2.76712299220749
C            5.49622039317013        2.52091600529998        2.22140362561500
C            6.45399275065161        1.84202677239512        1.48492950848911
C            6.12432393514188        0.64679710153094        0.85930151558162
C            4.82651801421230        0.10969817779288        0.97468111389643
C            3.85080139312980        0.79493333483533        1.68141755092690
C            4.20542025200255        1.98077859333847        2.29394857872064
N            4.74431693746070       -1.06460904148580        0.24182237140780
C            5.98262008598716       -1.29296432609940       -0.34042593715001
C            6.86920180668633       -0.25720964917217        0.02366286802837
C            8.18480854251504       -0.27594080511445       -0.41108612798819
C            8.64298881024486       -1.32238887573122       -1.20167000190400
C            7.75140363626106       -2.34805995798778       -1.52704958148253
C            6.43289503865928       -2.35460052286039       -1.10604093071089
C           10.09406523982379       -1.32041120431863       -1.66466972878080
C           11.01177493927658       -1.32818605732061       -0.43261090353634
C           10.35336749756494       -0.05581687539228       -2.49731942104237
C           10.44761425554026       -2.53675086131619       -2.52600006856576
C            3.63287733661094       -1.89780559370420        0.15099979766043
C            2.92389573879713       -2.24995867553641        1.30294660446486
C            1.83405165770782       -3.09316562884838        1.21437063288070
C            1.45428483312410       -3.59092781839381       -0.01919723941649
C            2.13920588547769       -3.24650364085255       -1.16989925358639
C            3.22717658603207       -2.39893298979832       -1.08862294649173
S            0.04133422597515       -4.68873342110866       -0.12230313736995
O            0.12178062124124       -5.42726645322815       -1.36572069781074
O           -0.02660786174047       -5.46321803382026        1.10013347421131
C           -1.38938269644361       -3.61157709827207       -0.18901191993526
C           -1.85073985795159       -3.16839229521706       -1.41527554457885
C           -2.95710090455647       -2.34345643276194       -1.47018478921547
C           -3.59798610506554       -1.95128541881667       -0.29159030310363
C           -3.10765304703364       -2.39473134114098        0.93979773898849
C           -2.00713912422718       -3.22786816334386        0.98736989112515
N           -4.72568537477860       -1.13728187809523       -0.34253290095792
C           -4.87849443706314        0.00502190162820       -1.11408896992343
C           -6.16641579895523        0.54053794642621       -0.91163920107792
C           -6.55850343592388        1.70598772937339       -1.55700506561371
C           -5.67311127961524        2.35710684330625       -2.40120991388906
C           -4.38854469813554        1.82089454459909       -2.56016869002054
C           -3.97260442770666        0.66461997407165       -1.92979179202152
C           -6.03777310172546        3.63117284257916       -3.15094956034888
C           -5.08519666192471        4.75918225371850       -2.72717038713429
C           -5.90706532803198        3.37943581674719       -4.66066295640920
C           -7.47185879648095        4.08997713020613       -2.86879105050609
C           -6.83121901546947       -0.33033725656690        0.02114555750798
C           -5.90956958686599       -1.34688489089143        0.35005210562985
C           -6.28727734698843       -2.38012877228333        1.19025173981797
C           -7.56383295842811       -2.35909672303567        1.72459981658980
C           -8.48435933638124       -1.34651910039937        1.44152637223984
C           -8.10401891349908       -0.33421764652684        0.56931559569848
C           -9.88564747097410       -1.32390324583483        2.03806564678982
C          -10.14366512157743       -2.48891970330582        2.99863503369723
C          -10.07815036729058       -0.01468970208803        2.81833324346191
C          -10.91477538998035       -1.40679304361415        0.90063268569057
H            5.74851641371888        4.56879265610815        4.97780410259555
H            4.48544745514979        3.38941461772879        4.63508109891271
H            6.15203758316077        2.85457573618803        4.84221919854414
H            5.03972519476950        5.04964646069661        1.31229825134915
H            5.08416441111818        5.87819171878360        2.87180932993141
H            3.82450161721746        4.69290300089885        2.53766483886124
H            7.47222378468637        4.46353625045945        1.71918567459039
H            7.93273183620077        3.55089936440061        3.16861504676782
H            7.39296511622709        5.22043314014202        3.30579776445664
H            7.45632660561200        2.22107133761719        1.37698756950579
H            2.83776354591825        0.42766080033801        1.74654527352318
H            3.44230463643225        2.50694186005628        2.84676671345797
H            8.84219782933975        0.52776061394200       -0.11800495036267
H            8.08440596989402       -3.18081381025104       -2.12406156855999
H            5.78676662513208       -3.18074628595816       -1.36194975833576
H           10.85622619367843       -0.44721607151834        0.18392502337075
H           10.81596548008920       -2.20878083714313        0.17644021468731
H           12.05480805663284       -1.34746110172083       -0.74217665195119
H            9.69369378404122       -0.03337360107019       -3.36274880176106
H           11.38339363467047       -0.04258308140938       -2.84805239175668
H           10.18103860489527        0.84498670620571       -1.91479333445460
H           10.31523378113875       -3.46272068288001       -1.97074045425301
H            9.84001578721402       -2.57007484937635       -3.42758275976375
H           11.49148880176412       -2.47413287947906       -2.82771732090258
H            3.25112105018971       -1.88188838171773        2.26285248153341
H            1.29073746063958       -3.40069783222192        2.09359356133473
H            1.81548198907673       -3.65884875499061       -2.11253977190304
H            3.76016719916835       -2.11016277149881       -1.98103119480723
H           -1.35539055899887       -3.50439933622620       -2.31243039672072
H           -3.34879293629145       -2.02164379454961       -2.42250677522044
H           -3.58665788610398       -2.07346981552049        1.85149176020400
H           -1.62393103962146       -3.59965866318729        1.92439537208113
H           -7.55136718492386        2.08411204929445       -1.38035398037328
H           -3.67995334340415        2.32641729040810       -3.19833112122016
H           -2.96528651600562        0.30122175975982       -2.06547939910043
H           -5.15405848487808        4.92662303355288       -1.65391709619227
H           -4.05314094419782        4.52062195675899       -2.96878405862970
H           -5.34884643824182        5.68295041017189       -3.23828362318818
H           -4.88987135933716        3.11106642672264       -4.93253993026202
H           -6.18241098507226        4.27449139689897       -5.21492235980233
H           -6.56639182201161        2.56862164829640       -4.96496223502329
H           -8.19181285641754        3.33357507629513       -3.17327424440829
H           -7.67958827990463        4.99714740968479       -3.43310787207069
H           -7.61109892875391        4.31278034519742       -1.81325107391662
H           -5.61844020009446       -3.19620514904052        1.41861707894941
H           -7.83926429289469       -3.16899443694641        2.37953240625286
H           -8.78963500947461        0.45465188549380        0.30170039752214
H          -10.06481646815504       -3.44544777891839        2.48677448866619
H           -9.44589053570663       -2.47082619556938        3.83290797124001
H          -11.15129092712679       -2.40799315008183        3.40206199719763
H           -9.97483538615735        0.85241115114148        2.17197227769479
H          -11.06923964263320        0.01184036841447        3.26688041137905
H           -9.33791009608517        0.06208317881399        3.61255418781045
H          -10.77151206149479       -2.32243198719313        0.32983469660094
H          -11.92409670752116       -1.40814127790939        1.30738457733342
H          -10.82281709732633       -0.56434188758128        0.22061067853334
