113
 energy: -157.311641359114 gnorm: 0.000034530874 xtb: 6.7.1 (edcfbbe)
C            8.97376823893697        2.91483377889647       -0.55654197106274
C            7.56945860353443        3.51248459554540       -0.42541732872080
C            7.57364899143268        4.47869933727730        0.76886811599444
C            7.25927404551431        4.28421384084080       -1.71702595351691
C            6.49312511440616        2.45714060321534       -0.20579263192534
C            5.16941103101653        2.86048053700426       -0.07648799763674
C            4.17175160782353        1.91933556748246        0.12130956500959
C            4.49603289807112        0.54700985561838        0.18752517752990
C            5.81132732405431        0.13143872564597        0.07839271096837
C            6.78635346846512        1.09304520263864       -0.12137461595144
N            3.34870396172640       -0.18632994678808        0.43138707767412
C            2.27863472182593        0.69700893170376        0.48761166249495
C            2.74482770623132        2.01216879852700        0.29194979291898
C            1.85033586304031        3.07450268034543        0.24314784680481
C            0.49088663325356        2.83856469714074        0.37708390485564
C            0.05568027277598        1.52069006603002        0.56899175932585
C            0.92210637164250        0.44760182940485        0.62267725486519
C           -0.55059993642291        3.94597132394271        0.29858947088608
C            0.07390987761456        5.32750756033134        0.08001798013140
C           -1.34935729025356        3.98126180785645        1.60886356220988
C           -1.50033438678598        3.65714906281933       -0.87391209773960
C            3.19138367092840       -1.56996698514021        0.37644424363352
C            3.68123867689238       -2.30074351604974       -0.70704148803188
C            3.29553837612580       -3.61774147905288       -0.87591839378242
C            2.46161705148410       -4.21081887755843        0.05390966209591
C            2.07242970783168       -3.53181333508705        1.19738773231935
C            2.44204388204648       -2.21393605957013        1.36520761086551
S            1.46721039336757       -5.63238052518868       -0.40405273451815
O            1.92462958706721       -6.16866478631482       -1.66699988917144
O            1.32422259217241       -6.56419776368035        0.69309671443665
C           -0.04347328549328       -4.68119503863378       -0.59611901054920
C           -1.00013945087536       -4.69443362711118        0.40205086146551
C           -1.94856557205611       -3.69035740125199        0.45112862939234
C           -1.91288159128754       -2.64492349142746       -0.47600149932510
C           -0.98572691345190       -2.68579634384714       -1.52186242802518
C           -0.05422374189277       -3.70205150256304       -1.57603244140216
N           -2.75435317621397       -1.54773207589514       -0.32368891385165
C           -3.44475666071388       -0.88115969951848       -1.32497911864483
C           -4.10925042395047        0.23519140518379       -0.77403946145157
C           -4.89383656941219        1.04995511633503       -1.57440842154398
C           -5.03866366144919        0.76611635231726       -2.92657663499956
C           -4.39753043961123       -0.36435654237275       -3.44017604557194
C           -3.60916022618540       -1.19509353077160       -2.66296742849051
C           -5.90020728463016        1.68090862297357       -3.78693228000843
C           -7.33915471468121        1.66254629918828       -3.24922542339489
C           -5.33833800209016        3.10905367868280       -3.71892014761047
C           -5.93689391721035        1.25557658518320       -5.25797388156857
C           -3.79694983915904        0.24773535263129        0.63090565083458
C           -2.96268888193955       -0.86377149592742        0.86674790480196
C           -2.44435801838786       -1.08299164548883        2.13347265618405
C           -2.82336751876595       -0.22793305195944        3.14964225619607
C           -3.68909243378491        0.85548481127518        2.95231705573141
C           -4.15688901085101        1.09714497695560        1.66965982323731
C           -4.10773869178228        1.69473913065106        4.15184361552622
C           -2.87015869152836        2.22514033762154        4.88980011557451
C           -4.97096487843994        2.89612266463092        3.75449634883141
C           -4.92788840603535        0.80333826686821        5.09772833810716
H            9.69340013678554        3.71558539986399       -0.71662279833196
H            9.26058012343796        2.38369436781726        0.34838806979944
H            9.03423857430529        2.23609889224158       -1.40445292799355
H            6.61923725956018        4.98775643717837        0.87069013088332
H            8.34912759397375        5.23113080550829        0.64002864144032
H            7.76966320278408        3.93510934807650        1.69126333065846
H            8.02527408580894        5.03557576292009       -1.89807627822140
H            6.29770713439897        4.78650853674662       -1.65821771286677
H            7.23643068524957        3.60314223418068       -2.56573195254405
H            4.90080249917079        3.90443816635168       -0.12232212155394
H            6.07803514017563       -0.91250231020694        0.15269856144124
H            7.80584885305857        0.75573497386169       -0.20802596452262
H            2.23721766959519        4.06709850148802        0.08350184159145
H           -0.99934201800230        1.31992928679147        0.67408657463679
H            0.54112249248992       -0.55476726848530        0.74634999196432
H            0.74043107567494        5.58987293226245        0.89867926162788
H            0.62595067305235        5.36338517274542       -0.85652608277737
H           -0.71279571548719        6.07816646190006        0.03403541589932
H           -0.68118251291966        4.14967712591843        2.45177278168749
H           -1.88005945744503        3.04638802728372        1.76923982514220
H           -2.07789925826816        4.78931910809421        1.58049757816465
H           -0.94176848894016        3.59568417754560       -1.80599191771265
H           -2.03112002259534        2.71974827333208       -0.73251524680066
H           -2.23462042050206        4.45490688826128       -0.96447473811240
H            4.29403771647811       -1.81210148793934       -1.44887593595116
H            3.59002404789805       -4.18300341211493       -1.74668028195644
H            1.45575952343184       -4.03956542993447        1.92234128198507
H            2.12571441918638       -1.66055152931603        2.23581041513167
H           -0.97545750713503       -5.48390801107470        1.13730643375372
H           -2.70728843654672       -3.69744964774796        1.21806294322286
H           -0.96021875735811       -1.88682091329792       -2.24599968002597
H            0.69797889041941       -3.72733651181370       -2.34871906522639
H           -5.38908386671265        1.89855870025511       -1.12909772536206
H           -4.51172474465324       -0.62129617184527       -4.48021718382291
H           -3.15259899920869       -2.07142375121071       -3.09774614615931
H           -7.38401568826068        2.01953609418073       -2.22394334132622
H           -7.97628346591210        2.29915472921969       -3.85994068440122
H           -7.73746330628325        0.64983996926881       -3.27471482209602
H           -5.92118252889746        3.77169730387298       -4.35552937140966
H           -4.30472159689454        3.12395690181519       -4.05926827337995
H           -5.36888003656090        3.49902871083993       -2.70560597261519
H           -4.94001876205308        1.26340385206642       -5.69327559044846
H           -6.55412030991918        1.95364981648645       -5.82045329921686
H           -6.36888568085923        0.26361955893572       -5.37027894227772
H           -1.75872054052009       -1.89230314636822        2.33245555272798
H           -2.42955269123845       -0.41735244269080        4.13617703481227
H           -4.79995746060161        1.93335215922128        1.45230583910841
H           -2.25455332950655        1.41728451657014        5.27498453829278
H           -2.26225764530998        2.83039407088899        4.22192816676142
H           -3.17744946374298        2.84343732789814        5.73086190706437
H           -5.90168089867208        2.57576871224131        3.29166957686748
H           -5.22178987834772        3.47183070197794        4.64333275441750
H           -4.43560128572946        3.54991065234364        3.07006624961565
H           -4.33951222256586       -0.03869709499525        5.45318844631900
H           -5.26012903964879        1.37717400244299        5.96054748207303
H           -5.80494746873601        0.41326573430750        4.58435411353871
