  113
       -157.25442617
 C          8.7329033139        2.9697199363       -0.7847461783
 C          7.3154790535        3.5331718080       -0.6519754363
 C          7.3131634007        4.5514760426        0.4971118582
 C          6.9583171477        4.2358483367       -1.9698427438
 C          6.2745264275        2.4598504013       -0.3660261395
 C          4.9428902150        2.8326382052       -0.2328855192
 C          3.9750202570        1.8731467362        0.0148301677
 C          4.3375399185        0.5138031932        0.1298998354
 C          5.6628459508        0.1309503397        0.0246527486
 C          6.6077545684        1.1099398348       -0.2265436879
 N          3.2120675772       -0.2398447773        0.4063225790
 C          2.1185477366        0.6134153556        0.4347342746
 C          2.5484828169        1.9336871254        0.1948801159
 C          1.6277487203        2.9715142638        0.1240118313
 C          0.2772250803        2.7031697628        0.2772372977
 C         -0.1243407221        1.3796556413        0.4981830516
 C          0.7689475816        0.3305728633        0.5758816285
 C         -0.7928034532        3.7806387163        0.1913962644
 C         -0.2071556565        5.1740920251       -0.0521982612
 C         -1.5788930681        3.8116466565        1.5087443038
 C         -1.7451325958        3.4489245407       -0.9660781893
 C          3.0966855080       -1.6266378452        0.4231631369
 C          3.6261742986       -2.4000922340       -0.6103276887
 C          3.2783580794       -3.7338845376       -0.7141410176
 C          2.4426884544       -4.3002612693        0.2303647296
 C          2.0170555501       -3.5721651776        1.3296271593
 C          2.3490751958       -2.2384390915        1.4334291810
 S          1.4532764609       -5.7381642643       -0.2031262976
 O          1.9272880103       -6.3020469735       -1.4397215884
 O          1.2628122562       -6.6243483950        0.9151068446
 C         -0.0323617381       -4.7467160003       -0.4438664676
 C         -1.0307308923       -4.7567180011        0.5114806351
 C         -1.9573319275       -3.7314132260        0.5428472858
 C         -1.8541159890       -2.6658536066       -0.3542785624
 C         -0.8792134239       -2.7019737175       -1.3550020441
 C          0.0241649444       -3.7430734604       -1.3968180998
 N         -2.6763380474       -1.5533374275       -0.2153913863
 C         -3.2797685313       -0.8335592320       -1.2332675420
 C         -3.9388861990        0.2882974454       -0.6871068460
 C         -4.6285809568        1.1668598504       -1.5064083632
 C         -4.6798793084        0.9433126139       -2.8755694599
 C         -4.0554437968       -0.1968948611       -3.3874166883
 C         -3.3640863749       -1.0922739918       -2.5904890738
 C         -5.4192422628        1.9387991116       -3.7571344324
 C         -6.8953655818        1.9788686686       -3.3376214550
 C         -4.7893690618        3.3272499870       -3.5744906753
 C         -5.3547641160        1.5807514917       -5.2440183883
 C         -3.7087466736        0.2493401085        0.7317083679
 C         -2.9241265770       -0.8957026981        0.9794679208
 C         -2.4669335790       -1.1554776859        2.2620108935
 C         -2.8475023777       -0.2979419381        3.2750267497
 C         -3.6589786613        0.8232473094        3.0610033504
 C         -4.0766614575        1.0969710655        1.7683325094
 C         -4.0515586112        1.6863925290        4.2502439627
 C         -2.7899078223        2.1845054677        4.9689259546
 C         -4.8754268437        2.9098449081        3.8396786192
 C         -4.8957885984        0.8387447074        5.2126230052
 H          9.4257907144        3.7817124425       -0.9959336432
 H          9.0521638315        2.4888660368        0.1369796044
 H          8.7957264313        2.2549089304       -1.6020306180
 H          6.3451356452        5.0344255584        0.5972894262
 H          8.0607738163        5.3211475493        0.3177318612
 H          7.5454168754        4.0566228345        1.4378882696
 H          7.7000947547        4.9969242568       -2.2022874559
 H          5.9853329045        4.7158793371       -1.9130181347
 H          6.9352518568        3.5156416166       -2.7852194141
 H          4.6439667316        3.8656377667       -0.3175115438
 H          5.9601465256       -0.9006711707        0.1420158757
 H          7.6353613974        0.7981382110       -0.3112776497
 H          1.9879837942        3.9686252197       -0.0649989570
 H         -1.1721279406        1.1575526390        0.6088537231
 H          0.4148309467       -0.6785612662        0.7215694605
 H          0.4640652170        5.4627014785        0.7534131833
 H          0.3304565572        5.2127473236       -0.9967137080
 H         -1.0130139057        5.9040502091       -0.0954983534
 H         -0.9083110259        4.0269830296        2.3388208696
 H         -2.0663811525        2.8596644504        1.6938874939
 H         -2.3395224331        4.5894816471        1.4707547293
 H         -1.1932110327        3.3882380912       -1.9019481041
 H         -2.2493678003        2.5020338100       -0.8052641418
 H         -2.4993469514        4.2269811236       -1.0630471238
 H          4.2362299311       -1.9326626957       -1.3682025900
 H          3.6023321701       -4.3354457726       -1.5491543127
 H          1.3978095274       -4.0554078368        2.0690216830
 H          2.0039850852       -1.6468656262        2.2674427103
 H         -1.0565641818       -5.5613061984        1.2297695615
 H         -2.7517490659       -3.7368419877        1.2729554430
 H         -0.7992652568       -1.8817161927       -2.0504143627
 H          0.8079321280       -3.7669975083       -2.1372141547
 H         -5.1193123197        2.0185508006       -1.0634069721
 H         -4.1044777370       -0.4082085049       -4.4424295482
 H         -2.9164227993       -1.9725976362       -3.0263611675
 H         -7.0041096623        2.2881819010       -2.3018081380
 H         -7.4441036253        2.6800806316       -3.9625212240
 H         -7.3440452120        0.9938245852       -3.4476076823
 H         -5.2813322570        4.0503765528       -4.2212414469
 H         -3.7323250081        3.2966181772       -3.8297771161
 H         -4.8808755971        3.6715539336       -2.5486220220
 H         -4.3256311337        1.5503581816       -5.5943309601
 H         -5.8838599204        2.3364316148       -5.8209421750
 H         -5.8277217185        0.6209713592       -5.4379522772
 H         -1.8191339888       -1.9922707670        2.4733118523
 H         -2.4950920587       -0.5122622062        4.2717723029
 H         -4.6782950563        1.9598974199        1.5399941638
 H         -2.2043730475        1.3604404651        5.3665849721
 H         -2.1633345382        2.7494158351        4.2825372100
 H         -3.0661773884        2.8328937799        5.7976909319
 H         -5.8071641273        2.6136304823        3.3636339080
 H         -5.1230231053        3.4926235788        4.7243700811
 H         -4.3123088224        3.5479642409        3.1630752617
 H         -4.3392519444       -0.0232035863        5.5705408387
 H         -5.1953499371        1.4337348186        6.0726936301
 H         -5.7926352172        0.4806462383        4.7108913433
