113
 energy: -157.215977429149 gnorm: 0.000053719722 xtb: 6.7.1 (edcfbbe)
C            8.92272288369625        2.81476912418235       -0.53132679321463
C            7.53097283994345        3.44004711133687       -0.39874006925925
C            7.54875842398381        4.39455687550801        0.80568190604594
C            7.23893905044183        4.23096033910184       -1.68380453445124
C            6.43384005256752        2.40772574329369       -0.19387911082182
C            5.11343934247700        2.84380346822980       -0.06584570573158
C            4.09668051866789        1.92676499015893        0.11926032239475
C            4.39117073473573        0.54138719657680        0.17096286413564
C            5.69978344001383        0.09477987572829        0.06003531842958
C            6.69772185150977        1.03541352487095       -0.12271353444812
N            3.23155603778777       -0.16833450901634        0.37995079286733
C            2.18289623607265        0.72327949318512        0.44988055595457
C            2.66897847537484        2.04189818335517        0.28473816229356
C            1.78968421615744        3.11199308729485        0.25292969278066
C            0.42168290839968        2.88540619202801        0.37706956499685
C           -0.03139585438091        1.56849500918069        0.54683517798611
C            0.82129973961114        0.48460425586706        0.58216436633144
C           -0.60305600472959        4.00558766924054        0.30992141241897
C            0.03673374852120        5.38183324677227        0.10344422690344
C           -1.40044917909566        4.03545155177803        1.62163338974746
C           -1.55707561705906        3.73705707063008       -0.86484046211638
C            3.08251334840171       -1.55850413310472        0.34877837461533
C            3.52674729488107       -2.28302146020332       -0.77023941902836
C            3.19588526728634       -3.60640661496356       -0.90202947989872
C            2.45842889334325       -4.25819069573873        0.09982653329717
C            2.09768123792415       -3.55546327461694        1.26207864823960
C            2.39483016159074       -2.22416309111806        1.38202932798355
S            1.46502261014987       -5.64128263434970       -0.37762435541400
O            1.98077332810539       -6.20130645071183       -1.61723911353651
O            1.27768339870424       -6.57366297784468        0.72339824480780
C           -0.03112437471450       -4.74036905754064       -0.64313682104911
C           -0.94738358676516       -4.65221928858316        0.41949541084840
C           -1.83411321540724       -3.61226804132359        0.48691155992420
C           -1.81337381957888       -2.59305586910624       -0.48819730420362
C           -0.92403955872509       -2.70813328687828       -1.58038836632479
C           -0.05408286220974       -3.76123782670913       -1.65347919177552
N           -2.62507281833187       -1.47305624879338       -0.34205469623708
C           -3.34796848284673       -0.84050055835038       -1.33360907207071
C           -4.02798431832096        0.27721683417970       -0.78439280293406
C           -4.82668620985391        1.07177809214678       -1.58596825165782
C           -4.98216035386266        0.76736702783229       -2.93859482949289
C           -4.33585036597012       -0.36509186196909       -3.44713318108068
C           -3.52843652636949       -1.17543577209050       -2.66768906653335
C           -5.86320842087626        1.66039813294113       -3.79651883833558
C           -7.29655798996518        1.62353430705351       -3.24294936383495
C           -5.32300554221127        3.09823109707450       -3.74169914407718
C           -5.90648311872731        1.22410550275087       -5.26384895458552
C           -3.70558432206974        0.30062772339975        0.61697748916187
C           -2.83043432498112       -0.79206392916018        0.84209650231038
C           -2.28885442333627       -0.99653689442874        2.10541790243220
C           -2.68856706266497       -0.16282909033270        3.13054152109743
C           -3.60189549920650        0.88763567888421        2.94607154488443
C           -4.08827636580782        1.12528371746199        1.66402317165033
C           -4.05295245857588        1.69384902794134        4.15283840052055
C           -2.83879500596887        2.26912330026663        4.89689454663274
C           -4.97204874277048        2.85906403323734        3.77375963558804
C           -4.82825657219689        0.75096684254714        5.08805356774590
H            9.65888787135478        3.60210533753951       -0.68078921953227
H            9.19594667369102        2.26883298886253        0.36884193044658
H            8.97277992403841        2.14402898904948       -1.38613443899956
H            6.60661737572675        4.92548919218391        0.90761060526174
H            8.34246920805044        5.12888463474232        0.68651972972288
H            7.72843921071433        3.83807453753410        1.72347114899884
H            8.02514741225609        4.96273336117841       -1.85643697211530
H            6.29159093905720        4.75867345497954       -1.62121568091155
H            7.19974091523386        3.55861324423833       -2.53866821446163
H            4.87342250617582        3.89436206689956       -0.10541465657153
H            5.93466487048675       -0.95721250245457        0.12045425982849
H            7.70994832658288        0.67793130368427       -0.20731008221594
H            2.18341622162650        4.10474619125056        0.11538621302279
H           -1.08843064465256        1.38159111423825        0.64678076321196
H            0.43994254584354       -0.51929144749635        0.68849215306276
H            0.70316102987522        5.63236806226793        0.92567346624181
H            0.59029887214828        5.42001635256912       -0.83196215067139
H           -0.74252306759591        6.14011173380219        0.06175371254646
H           -0.73059754862989        4.19810627268660        2.46404109860367
H           -1.93329360215058        3.10137994176183        1.77785943437609
H           -2.12538916695135        4.84636407200572        1.59656111050597
H           -0.99993212957623        3.67793416802343       -1.79771586121469
H           -2.09880272285007        2.80507212732056       -0.73184436413145
H           -2.28032004762761        4.54536653892569       -0.94619248090047
H            4.07333855002189       -1.77179838323114       -1.54900732677201
H            3.46672306681269       -4.17444428489890       -1.77873287727580
H            1.55856214201180       -4.08690873434831        2.03142061094793
H            2.11327829017131       -1.67171311997899        2.26629300779603
H           -0.92748607395887       -5.43053494942718        1.16691620445289
H           -2.57396649761639       -3.57588324258551        1.27245470091504
H           -0.89447393259500       -1.92594373715509       -2.32324542552050
H            0.65740575023723       -3.84711857829197       -2.46018943588387
H           -5.32817451223969        1.92081806390971       -1.14985823765391
H           -4.46450980433151       -0.63887169146765       -4.48053362281340
H           -3.07097377986657       -2.05607849032665       -3.09125556476555
H           -7.33791241105315        1.98663686414522       -2.21989000358741
H           -7.94717996672268        2.24684312367354       -3.85265842313811
H           -7.68028227983875        0.60520107594045       -3.25937931411454
H           -5.91883786445295        3.74307938514554       -4.38398226250596
H           -4.29116628346246        3.12638660398916       -4.08586181945781
H           -5.35873592267182        3.49889576283428       -2.73304379513955
H           -4.91365389870084        1.24169606260054       -5.70782226257675
H           -6.53745217628465        1.90987557882544       -5.82583736376135
H           -6.32672783699679        0.22616593279575       -5.36619831333011
H           -1.57091451090110       -1.78060054873482        2.28825022606577
H           -2.27678110352703       -0.34017174516886        4.11113123798697
H           -4.76480878012668        1.93847897979204        1.46326062783634
H           -2.18288665975143        1.48553983228016        5.26474182233925
H           -2.26470633994127        2.91725034814918        4.23989702993348
H           -3.17436392947919        2.85406423342174        5.75060301077849
H           -5.88961033795029        2.50250354998099        3.31148737694098
H           -5.24483532584943        3.40989934533925        4.67152614049795
H           -4.47042314022559        3.54672086881661        3.09732006987688
H           -4.20059139922506       -0.06671880417042        5.43260907476165
H           -5.18497939635013        1.29865047799094        5.95776269856238
H           -5.68707445221361        0.32658877793831        4.57132869730876
