113
 energy: -157.220571248448 gnorm: 0.000068408270 xtb: 6.7.1 (edcfbbe)
C            7.44558405318722        2.50059703317011        1.26017071666754
C            6.31781247073530        2.80615555075088        0.26209885356746
C            5.87015802281771        4.25520424859524        0.47624024673493
C            6.84727800417297        2.67809924394468       -1.17469961747614
C            5.19080266600286        1.80740674859868        0.46894552332969
C            3.90897181198578        2.19435694032626        0.84809004904030
C            2.92119522625802        1.23763494745500        1.01723548059752
C            3.20499806938800       -0.13252004298859        0.79601605309173
C            4.48895644020872       -0.53380147730513        0.44985671575595
C            5.45267772374283        0.44078614166699        0.28768577209544
N            2.07563294952580       -0.88265721341834        1.03911765753195
C            1.05686974901431       -0.02407080033003        1.39638138658760
C            1.53823243454356        1.30687060431552        1.41249022590406
C            0.69542266878103        2.34329619659992        1.76945245013113
C           -0.64093902093455        2.08562630664627        2.07764545456633
C           -1.10648614021069        0.77046185087573        1.98569189031656
C           -0.28001759149083       -0.28771268669477        1.65345801919563
C           -1.53188580357444        3.23167736661558        2.52749471269788
C           -1.52347435506743        4.34086702278077        1.46691337119224
C           -0.98074083468449        3.77938410703390        3.85436149960705
C           -2.98535747753377        2.80403900185803        2.74929017597457
C            1.92656670763764       -2.26134696896484        0.90624909997936
C            2.37720735873528       -2.93302115779709       -0.24747058125879
C            2.04941866961697       -4.24688526506898       -0.44840030333665
C            1.28741410251853       -4.94856157439895        0.50640503669156
C            0.93410200737708       -4.30568902564517        1.70878351091036
C            1.24707060016636       -2.98915599123777        1.90493432965079
S            0.18515623396868       -6.19450071331201       -0.08950495907302
O            0.77082398331222       -6.92838739117874       -1.19912432645903
O           -0.35112816118258       -6.98806387784351        1.00386913406101
C           -0.99521032297245       -5.00923724533958       -0.65904998372026
C           -1.80115719835267       -4.37969302901638        0.30997084367840
C           -2.20965587957486       -3.08430103327537        0.13959646618905
C           -1.80021417031241       -2.35816991988289       -0.99644667508722
C           -1.07762677356675       -3.01878189228422       -2.01150820503222
C           -0.68289756277007       -4.31727685415142       -1.84557716833227
N           -2.03032149336879       -0.98776506219149       -1.09403915766665
C           -3.20044966776536       -0.31125758534863       -0.82874206827812
C           -2.99620958325987        1.07891827948243       -1.00917730497181
C           -4.03640532239679        1.97196598600205       -0.80893411033270
C           -5.29265944845162        1.50084450125071       -0.43921609778945
C           -5.47569774598756        0.11649372613052       -0.30066701284432
C           -4.45831813149228       -0.79590689157429       -0.49377862674607
C           -6.47368895034140        2.42664227347975       -0.19730515051775
C           -7.58623002383304        2.09189620304437       -1.20306144840169
C           -6.99016781650505        2.22030357914736        1.23518352317993
C           -6.10898392966701        3.90498501500384       -0.36282461704423
C           -1.62056451393919        1.23913989316880       -1.40374715392294
C           -1.06350441685763       -0.06188733158121       -1.42687815344375
C            0.28576655433279       -0.24069240857956       -1.69203687393118
C            1.04913772154269        0.87222931080757       -1.99461678532892
C            0.50840388257043        2.16042581593541       -2.04913942680083
C           -0.83944832438625        2.33214555793084       -1.73130163998480
C            1.33055059012761        3.36744558165705       -2.46936575916245
C            0.74308275790532        3.91876619513389       -3.77904072363844
C            1.26346972860870        4.44514204517401       -1.37883413018589
C            2.80506182294891        3.02966693961774       -2.70713772766820
H            7.85318373804784        1.50486060050763        1.10915679219332
H            8.25320118945406        3.21972492681623        1.14075803835375
H            7.07401311244593        2.56544258194269        2.28108608972133
H            6.71206535234546        4.92181899176358        0.30085750930398
H            5.52648128388602        4.41352336847691        1.49588292188862
H            5.07826087627195        4.52595975323639       -0.21734898590712
H            6.05099428904810        2.87748387970768       -1.88844586315427
H            7.23884546557865        1.68363223798992       -1.36919313377610
H            7.64808358208601        3.39543548992325       -1.34098235408761
H            3.66803571632574        3.22914987899670        1.02256635498569
H            4.73438834077378       -1.57721687755491        0.32477782482719
H            6.44776887693419        0.12413183647931        0.01744646519731
H            1.08504721605044        3.34744855471989        1.81700360923803
H           -2.14274459351067        0.55231154836746        2.18045370060179
H           -0.66864471893886       -1.29227967682802        1.58709448363838
H           -0.52996330694719        4.75588849087324        1.32970500013448
H           -1.86664168711748        3.93899035376735        0.51772739564012
H           -2.18768623896959        5.14807459812967        1.76860308772220
H            0.03448424721927        4.14890327177487        3.73867945675200
H           -0.97462700457589        2.99793783425169        4.61186272958656
H           -1.60471942880465        4.59728614534107        4.20835180826326
H           -3.06295350253621        2.05716343647312        3.53621670539284
H           -3.57105807411369        3.66892518083894        3.05547615907127
H           -3.41756203725013        2.40577869696005        1.83351477701409
H            2.92969630034184       -2.38870065615810       -0.99862931356847
H            2.33503102130834       -4.76859032541351       -1.34875692079581
H            0.39932255103851       -4.87789506258717        2.45104775765818
H            0.99036641326543       -2.49554471291600        2.83056454352233
H           -2.05460839471153       -4.93949782020099        1.19699588085442
H           -2.79479769544161       -2.59314993374521        0.90258464669950
H           -0.85239877254557       -2.48865623186248       -2.92505775072071
H           -0.11372378276822       -4.83756950346383       -2.60039470873116
H           -3.85512506075897        3.02366553076820       -0.95202119775249
H           -6.45039622636491       -0.26449290728710       -0.03939838154448
H           -4.64303866760531       -1.85504487697756       -0.40024863478406
H           -7.22277147185953        2.21130766854919       -2.22195588695978
H           -7.93720678670001        1.07047670152613       -1.08456962205320
H           -8.43197177507982        2.76069862203918       -1.05798911802102
H           -7.82119837031356        2.89439132105300        1.43129880201359
H           -6.20038527562409        2.42777671787177        1.95383399999707
H           -7.33627616706085        1.20264950498648        1.39249915952826
H           -5.33136822647661        4.19618454130506        0.33861980505353
H           -6.98649261601525        4.51688017143432       -0.16410389750555
H           -5.77806999126159        4.11672859096699       -1.37695910042131
H            0.73188568726457       -1.22255804247574       -1.65410545926124
H            2.09581612492948        0.71985330798046       -2.19592209541193
H           -1.28586162244148        3.31336719201084       -1.74870577637356
H            0.78081532784067        3.16033938878489       -4.55868381263000
H           -0.29194779023391        4.22360760232941       -3.65096214269028
H            1.31591923092449        4.78225257221414       -4.11050729709838
H            1.62865138988719        4.03657060386681       -0.44081457639681
H            1.88323729261593        5.29460840820901       -1.65823127162379
H            0.24917552793871        4.80236339667069       -1.23103588744229
H            3.33835160691950        3.93390329446638       -2.99477081823486
H            3.26445203228642        2.63515593971312       -1.80303457704650
H            2.92120277216623        2.30766136285387       -3.51228549948273
