  54
  -84.7266061247000        1.00000000000000      !
 C         -0.5634772192        2.8258582781        0.9106891251
 C          0.4845263932        0.1913595866       -0.0352245580
 C         -2.4709781494        2.8664085338       -1.1068317663
 C          1.4122939598       -0.1540950114       -1.1182662117
 C          2.5363088357        1.4090025067        0.2408550808
 N          3.9596997377        0.9979748470        0.2845057337
 C          4.1539067344       -0.9329846788       -0.7196337243
 C          3.0893641877       -1.9132212874       -1.0389651445
 C          1.7837360232       -1.5233861420       -1.0909813394
 N          0.7374667026       -2.4246845100       -0.9346685859
 C         -0.5386101730       -2.0483002821       -0.5775004797
 C         -1.5834062349       -2.8530251479       -0.8131226367
 C         -3.3382836295       -2.0997082802        0.8630107629
 N         -3.4794823241       -0.7907283847        1.4792117015
 C         -2.4410345974        0.1956533732        1.0781466164
 C         -0.6987822094       -0.7281939176        0.1220529428
 O         -2.2081118457        4.2124939847       -0.9133412493
 S         -0.8854373770        1.7493162872       -0.6766385236
 O         -0.2672225598        2.1409188205        2.0139726704
 C          1.4837076938        0.5954303482        0.9969943357
 C          1.9954186892       -0.4141545198        1.8951296534
 C          3.2564633850       -0.8682259709        1.7916155923
 C          4.2080676190       -0.3745234049        0.7734083807
 C          3.8949321637        0.5224277864       -1.1209673459
 C          2.4249959553        0.9351622695       -1.2248956440
 C         -1.8837626405        0.2047372488       -0.3527872853
 C         -1.3115816759       -0.7175881052        1.5449028896
 C         -2.3977809293       -1.7185905730        1.9270185643
 C         -3.0175854166       -2.4631839300       -0.5767767040
 C         -3.3343994347       -1.3595535372       -1.5505970484
 C         -2.7884652213       -0.1553043651       -1.4624744833
 H         -1.4755939694        3.4042710312        1.0515659789
 H          0.5923540489        1.5178299903        1.7990167914
 H          0.2474012049        3.4655788827        0.5373357694
 H         -1.5932137587        4.5244695599       -1.5865681733
 H         -2.7132277130        2.6436823355       -2.1475286344
 H         -3.2855632854        2.5801329917       -0.4452951854
 H          2.4737084375        2.4812843735        0.4463411005
 H          5.1331998472       -1.3000694218       -1.0305207658
 H          3.3373623213       -2.9624396284       -0.9775681679
 H          0.8895149619       -3.3876581590       -1.1881994539
 H         -1.4148894038       -3.7994026602       -1.3060050557
 H         -4.1475641709       -2.7116114448        1.2581639066
 H         -2.6646667057        1.1520678910        1.5417455091
 H          1.3354951674       -0.8625483428        2.6245355532
 H          3.6139200277       -1.6377617746        2.4597215701
 H          5.2313194544       -0.4287034480        1.1596840050
 H          4.5842884648        0.9777635166       -1.8302968097
 H          2.1901619917        1.6712057591       -1.9935332660
 H         -0.6662006924       -0.4358670716        2.3662801255
 H         -2.4200933977       -2.1896041933        2.8990321793
 H         -3.6431616530       -3.3259641613       -0.8186916218
 H         -3.9828761851       -1.6004905655       -2.3794131787
 H         -2.9850007704        0.5872216453       -2.2176528134
