  54
        -85.09483861
 C         -0.5634772192        2.8258582781        0.9106891251
 C          0.4845263932        0.1913595866       -0.0352245580
 C         -2.4709781494        2.8664085338       -1.1068317663
 C          1.4122939598       -0.1540950114       -1.1182662117
 C          2.5363088357        1.4090025067        0.2408550808
 N          3.9596997377        0.9979748470        0.2845057337
 C          4.1539067344       -0.9329846788       -0.7196337243
 C          3.0893641877       -1.9132212874       -1.0389651445
 C          1.7837360232       -1.5233861420       -1.0909813394
 N          0.7374667026       -2.4246845100       -0.9346685859
 C         -0.5386101730       -2.0483002821       -0.5775004797
 C         -1.5834062349       -2.8530251479       -0.8131226367
 C         -3.3382836295       -2.0997082802        0.8630107629
 N         -3.4794823241       -0.7907283847        1.4792117015
 C         -2.4410345974        0.1956533732        1.0781466164
 C         -0.6987822094       -0.7281939176        0.1220529428
 O         -2.2081118457        4.2124939847       -0.9133412493
 S         -0.8854373770        1.7493162872       -0.6766385236
 O         -0.2672225598        2.1409188205        2.0139726704
 C          1.4837076938        0.5954303482        0.9969943357
 C          1.9954186892       -0.4141545198        1.8951296534
 C          3.2564633850       -0.8682259709        1.7916155923
 C          4.2080676190       -0.3745234049        0.7734083807
 C          3.8949321637        0.5224277864       -1.1209673459
 C          2.4249959553        0.9351622695       -1.2248956440
 C         -1.8837626405        0.2047372488       -0.3527872853
 C         -1.3115816759       -0.7175881052        1.5449028896
 C         -2.3977809293       -1.7185905730        1.9270185643
 C         -3.0175854166       -2.4631839300       -0.5767767040
 C         -3.3343994347       -1.3595535372       -1.5505970484
 C         -2.7884652213       -0.1553043651       -1.4624744833
 H         -1.4755939694        3.4042710312        1.0515659789
 H          0.5923540489        1.5178299903        1.7990167914
 H          0.2474012049        3.4655788827        0.5373357694
 H         -1.5932137587        4.5244695599       -1.5865681733
 H         -2.7132277130        2.6436823355       -2.1475286344
 H         -3.2855632854        2.5801329917       -0.4452951854
 H          2.4737084375        2.4812843735        0.4463411005
 H          5.1331998472       -1.3000694218       -1.0305207658
 H          3.3373623213       -2.9624396284       -0.9775681679
 H          0.8895149619       -3.3876581590       -1.1881994539
 H         -1.4148894038       -3.7994026602       -1.3060050557
 H         -4.1475641709       -2.7116114448        1.2581639066
 H         -2.6646667057        1.1520678910        1.5417455091
 H          1.3354951674       -0.8625483428        2.6245355532
 H          3.6139200277       -1.6377617746        2.4597215701
 H          5.2313194544       -0.4287034480        1.1596840050
 H          4.5842884648        0.9777635166       -1.8302968097
 H          2.1901619917        1.6712057591       -1.9935332660
 H         -0.6662006924       -0.4358670716        2.3662801255
 H         -2.4200933977       -2.1896041933        2.8990321793
 H         -3.6431616530       -3.3259641613       -0.8186916218
 H         -3.9828761851       -1.6004905655       -2.3794131787
 H         -2.9850007704        0.5872216453       -2.2176528134
  54
        -85.09134848
 C         -0.4474495425        2.7289677821        1.0153844304
 C          0.5170830807        0.1664561055       -0.0134472432
 C         -2.2888439870        3.0013170184       -0.9211654233
 C          1.4507305632       -0.1744920335       -1.1009943262
 C          2.5993279728        1.3058086545        0.3189048610
 N          4.0178713990        0.8848535217        0.3745620701
 C          4.1605694217       -1.0463109101       -0.6399097899
 C          3.0746320281       -1.9845121959       -0.9983056295
 C          1.7853662408       -1.5547958030       -1.1082116876
 N          0.7059409073       -2.4280200091       -1.0229516719
 C         -0.5605993735       -2.0242201124       -0.6698616663
 C         -1.6301499997       -2.7779633875       -0.9617494363
 C         -3.3604950181       -2.0703748923        0.7518686532
 N         -3.4673588473       -0.7965827967        1.4440614227
 C         -2.3993287889        0.1831217928        1.1025651858
 C         -0.6868292147       -0.7365209606        0.0935313285
 O         -3.3645474164        2.8479069695       -0.0652358625
 S         -0.7739896840        1.7778512535       -0.5864131530
 O          0.1383904362        3.9350307078        0.7308572093
 C          1.5379791129        0.4645955893        1.0108644777
 C          1.9947388172       -0.5067200097        1.9389611272
 C          3.2769512250       -0.9451198674        1.8973927471
 C          4.2306223406       -0.4931302983        0.8667895516
 C          3.9577689905        0.4194904998       -1.0346618969
 C          2.5031518217        0.8825830330       -1.1604478318
 C         -1.8414009955        0.2562968901       -0.3265781478
 C         -1.2977369667       -0.7864659990        1.5155019468
 C         -2.4125215351       -1.7779328819        1.8381128423
 C         -3.0518361344       -2.3546226271       -0.7086449361
 C         -3.3332441124       -1.1875300624       -1.6177715527
 C         -2.7553505399       -0.0054926822       -1.4551392549
 H          0.1745054749        2.0579407258        1.6234981610
 H          1.0441996475        3.8031140770        0.4196336669
 H         -1.4148651537        2.9308442935        1.4712359553
 H         -3.8755832921        2.0663722340       -0.3084983385
 H         -1.8610507469        3.9884736587       -0.7564263462
 H         -2.5436944231        2.8830624644       -1.9760894291
 H          2.5379174536        2.3697350739        0.5756141293
 H          5.1331213392       -1.4424412697       -0.9367703364
 H          3.2844642973       -3.0424389291       -0.9391800926
 H          0.8328758692       -3.3848234098       -1.3117703066
 H         -1.4888251958       -3.7037495414       -1.4997853255
 H         -4.1856897921       -2.6826506762        1.1120109072
 H         -2.6103849351        1.1134172529        1.6211541193
 H          1.3107415502       -0.9695394942        2.6372922194
 H          3.6206367244       -1.6911756455        2.5974971047
 H          5.2577609003       -0.5790222076        1.2354337652
 H          4.6736080797        0.8541835420       -1.7310120878
 H          2.3120395943        1.6454954492       -1.9152554357
 H         -0.6371985863       -0.5752886955        2.3463303848
 H         -2.4513164121       -2.3056672747        2.7799046573
 H         -3.7044496303       -3.1810467411       -1.0008430298
 H         -3.9801146999       -1.3636479897       -2.4640730977
 H         -2.9128298662        0.7841026063       -2.1740558733
  54
        -85.09089611
 C         -0.5494826969        2.5885786682        1.1401542078
 C          0.4351163176        0.1318298227       -0.0020698110
 C         -2.4571782577        2.8835412067       -0.7736854567
 C          1.3722610305       -0.1794827684       -1.1027640046
 C          2.4767655331        1.3446028138        0.3051772979
 N          3.9137895670        0.9876677529        0.3349293701
 C          4.1249822989       -0.9329403382       -0.6905056252
 C          3.0754944363       -1.9161215226       -1.0305878366
 C          1.7639498747       -1.5418436935       -1.1082426732
 N          0.7278471686       -2.4627155055       -0.9855844270
 C         -0.5554779816       -2.1049678487       -0.6396197928
 C         -1.5965842953       -2.8952561450       -0.9345617153
 C         -3.3442285529       -2.2534993898        0.7831118667
 N         -3.4988404760       -0.9890161321        1.4812882147
 C         -2.4739025763        0.0326275710        1.1339567145
 C         -0.7290400832       -0.8214673324        0.1206698241
 O         -2.0387156841        4.2197617100       -0.7311683604
 S         -0.8702962010        1.6822279867       -0.4998554143
 O          0.0710724758        3.7841141132        0.9295603748
 C          1.4767514129        0.4394737524        1.0032191420
 C          1.9804738552       -0.5206891097        1.9088048165
 C          3.2887109011       -0.8853598976        1.8611705035
 C          4.1992483089       -0.3792278942        0.8202322714
 C          3.8507028666        0.5241712969       -1.0742352754
 C          2.3756540296        0.9216301809       -1.1758505712
 C         -1.9149746828        0.1347973830       -0.2904850351
 C         -1.3311013477       -0.8906305525        1.5455670972
 C         -2.4037845410       -1.9280502432        1.8677242941
 C         -3.0309379840       -2.5176707615       -0.6801759403
 C         -3.3505203237       -1.3559210239       -1.5845386041
 C         -2.8149055813       -0.1544291777       -1.4224797731
 H          0.1312218325        1.9288761927        1.6900378345
 H         -0.5681256053        4.3939548945        0.5179931101
 H         -1.5179918701        2.6863810077        1.6351597361
 H         -1.5494320227        4.4152979392       -1.5381740584
 H         -2.8865897419        2.6363664450       -1.7431537960
 H         -3.1919969580        2.7352970129        0.0134860200
 H          2.3451777173        2.3984321156        0.5615295632
 H          5.1085552676       -1.2862916281       -1.0045634762
 H          3.3297532760       -2.9643472200       -0.9703058523
 H          0.8867032610       -3.4111664375       -1.2866313569
 H         -1.4239278609       -3.8159543070       -1.4718669637
 H         -4.1413627888       -2.9014297578        1.1440852322
 H         -2.7277689721        0.9534103034        1.6516833974
 H          1.3205409109       -1.0371678823        2.5930590755
 H          3.6757708723       -1.6222922891        2.5477976437
 H          5.2370782131       -0.4208231398        1.1655304664
 H          4.5350559005        0.9914101062       -1.7813251883
 H          2.1392049917        1.6814556432       -1.9197889951
 H         -0.6761583894       -0.6532198631        2.3745476736
 H         -2.4185003986       -2.4614105317        2.8072280593
 H         -3.6577065394       -3.3627344164       -0.9758958947
 H         -3.9923746747       -1.5525289787       -2.4301040318
 H         -3.0101380650        0.6321093913       -2.1322717326
