  79
       -128.09376850
 C          0.9023205340        1.5960451260        2.9105621903
 C          2.2294572821        1.7245226257        2.5430945578
 C          2.7924969412        0.8355694462        1.6445111004
 C          2.0182101126       -0.1721435268        1.0450176113
 C          2.5894051040       -1.2171465979        0.2672274283
 N          3.9268656106       -1.1887843900       -0.1085463337
 C          4.8412764577       -2.2036949247        0.0913704702
 C          4.6979313789       -3.3915718693        0.7959767125
 C          5.7921794636       -4.2321584142        0.8723278228
 C          7.0074608335       -3.8995720153        0.2776210852
 C          7.1658268341       -2.7034677981       -0.3972895160
 C          6.0805269858       -1.8450368763       -0.4901297279
 C          5.8916957218       -0.5476521247       -1.0795193168
 C          6.7169639257        0.2993097871       -1.8047209080
 C          6.1940174301        1.4898757747       -2.2726261017
 C          4.8633558219        1.8291952059       -2.0372023132
 C          4.0215667474        1.0053659435       -1.3143244478
 C          4.5500081514       -0.1802549173       -0.8205810043
 C          1.8097502839       -2.3578249030       -0.0609402437
 C          0.4680527406       -2.3703436718        0.1452221464
 C         -0.1933019194       -1.2078284598        0.6669987358
 C         -1.5647653771       -1.0917296330        0.4139312425
 N         -2.3556878471       -2.1572126303        0.2090733430
 C         -3.5806638856       -1.6851333710       -0.0090207733
 C         -4.7772298019       -2.4363910987       -0.2002969083
 C         -4.7629977329       -3.8320763658       -0.1367244386
 C         -5.9281458772       -4.5472835612       -0.2836205049
 C         -7.1236011096       -3.8648618507       -0.4882776437
 C         -7.1472698304       -2.4890372803       -0.5593605602
 C         -5.9781104429       -1.7266015820       -0.4286517269
 C         -5.9601011089       -0.2785546881       -0.5451944062
 C         -7.1123721708        0.4410145904       -0.8773529561
 C         -7.1022557369        1.8079173600       -1.0440302979
 C         -5.9110146310        2.5172432204       -0.9053424071
 C         -4.7587303383        1.8544671629       -0.5706646164
 C         -4.7510152704        0.4618421076       -0.3572984099
 C         -3.5904298453       -0.2663373375       -0.0109784589
 N         -2.3017215820        0.1025709687        0.2760079430
 C         -1.7184133876        1.3779349280        0.3052482802
 C         -2.1682752151        2.3534127320        1.1936327891
 C         -1.4818018160        3.5428893466        1.3112184458
 C         -0.3347383069        3.7757531699        0.5618328210
 C          0.0792665023        2.8245445163       -0.3767885691
 C         -0.6157186368        1.6320866854       -0.4993899611
 O          1.1692744959        3.0197184166       -1.1814871432
 C          1.6434867348        4.3491276836       -1.1766960847
 C          1.6742019776        4.8884187725        0.2512370700
 O          0.3663368556        4.9310713158        0.7786867056
 C          0.6269556027       -0.2216152995        1.3326207871
 C          0.1166817237        0.6120805350        2.3222157353
 H          0.4725694577        2.2540248539        3.6504506542
 H          2.8427381284        2.4972990673        2.9849537841
 H          3.8463149286        0.9042333492        1.4205959019
 H          3.7675406786       -3.6449696298        1.2799764629
 H          5.7051726955       -5.1645895035        1.4100273659
 H          7.8387865122       -4.5837995684        0.3574537409
 H          8.1140836142       -2.4378851260       -0.8397484727
 H          7.7422590381        0.0267048378       -2.0040058594
 H          6.8195065135        2.1638961490       -2.8385247335
 H          4.4783868581        2.7554360672       -2.4372195089
 H          2.9906950524        1.2757021980       -1.1466290945
 H          2.2961883522       -3.1852051783       -0.5546609258
 H         -0.1497829533       -3.1913019845       -0.1775895382
 H         -3.8159762014       -4.3184047123        0.0368107909
 H         -5.9210306662       -5.6257972545       -0.2345680353
 H         -8.0454537428       -4.4184879563       -0.5938067940
 H         -8.0986545832       -2.0062475452       -0.7157017137
 H         -8.0450951235       -0.0791516675       -1.0229220533
 H         -8.0140179898        2.3268733289       -1.2994016031
 H         -5.8942601365        3.5848049144       -1.0668085115
 H         -3.8357517517        2.4045075577       -0.4910360887
 H         -3.0320800195        2.1605230764        1.8111974673
 H         -1.7961619498        4.3000892547        2.0109116031
 H         -0.2702382095        0.9006563810       -1.2125278224
 H          2.6427419288        4.3226284221       -1.6129179706
 H          0.9881418100        4.9816168656       -1.7911792928
 H          2.0556800729        5.9095125522        0.2846021699
 H          2.3038416583        4.2328014505        0.8688019362
 H         -0.9052489050        0.4836915662        2.6438453229
  79
       -128.09293718
 C          1.0019951964        1.7468568132        2.9714640193
 C          2.3184189117        1.8338143728        2.5534806353
 C          2.8438957059        0.8809630448        1.6999650966
 C          2.0422660338       -0.1610164842        1.2044638970
 C          2.5792582705       -1.2610893794        0.4801856221
 N          3.8691710275       -1.2288966947       -0.0323866195
 C          4.8206529437       -2.2212446519        0.0915082118
 C          4.8134806291       -3.3516880348        0.8979596550
 C          5.9195589262       -4.1792865542        0.8582243067
 C          7.0153544809       -3.8902088794        0.0476284479
 C          7.0428288512       -2.7484215686       -0.7312946376
 C          5.9445733424       -1.9021159128       -0.7072471128
 C          5.6435421209       -0.6524548820       -1.3509247565
 C          6.3261383111        0.1385166178       -2.2637262079
 C          5.7173292514        1.2899530119       -2.7261323899
 C          4.4410795936        1.6465902683       -2.2964722105
 C          3.7417905568        0.8772545591       -1.3860432775
 C          4.3571187029       -0.2699527072       -0.9041479281
 C          1.7975692095       -2.4362537149        0.3122962892
 C          0.4650699434       -2.4244789721        0.5658594207
 C         -0.1802875739       -1.2020254666        0.9650871713
 C         -1.5347029212       -1.0786746350        0.6469945991
 N         -2.3219651550       -2.1486377593        0.4386081876
 C         -3.5163882978       -1.6820059044        0.0864685467
 C         -4.6947891393       -2.4354839568       -0.1912996865
 C         -4.7061301505       -3.8250660667       -0.0473442046
 C         -5.8556419265       -4.5400875579       -0.2878622716
 C         -7.0105831676       -3.8630901741       -0.6681503543
 C         -7.0079059289       -2.4936974872       -0.8197661909
 C         -5.8513993633       -1.7327610625       -0.5988755647
 C         -5.8003978236       -0.2944780849       -0.7977704590
 C         -6.8896304368        0.4073675135       -1.3241113086
 C         -6.8422615249        1.7618886696       -1.5671717280
 C         -5.6753365044        2.4760061545       -1.3034876942
 C         -4.5850186989        1.8303753384       -0.7805260876
 C         -4.6169554453        0.4504263654       -0.4989326234
 C         -3.5104867574       -0.2657894787        0.0117220904
 N         -2.2491577592        0.1104747284        0.3945306810
 C         -1.6900436987        1.3962590093        0.4438516712
 C         -2.2204625550        2.3691562050        1.2894861713
 C         -1.5798003772        3.5815850482        1.4268116261
 C         -0.4011008456        3.8409497669        0.7369572448
 C          0.0955813386        2.8903089868       -0.1611477778
 C         -0.5522689226        1.6731336721       -0.3022393717
 O          1.2217533229        3.1115297394       -0.9068627073
 C          1.6481244321        4.4569951249       -0.9030473171
 C          1.5792998694        5.0265591003        0.5116235320
 O          0.2449769723        5.0241570154        0.9704760610
 C          0.6622049880       -0.1776129761        1.5429514503
 C          0.1878990787        0.7333481888        2.4796562566
 H          0.6021645008        2.4617429026        3.6746263490
 H          2.9535310309        2.6274265970        2.9220842124
 H          3.8887103585        0.9230253108        1.4307750845
 H          3.9783175611       -3.5707245162        1.5451074619
 H          5.9373419988       -5.0670903725        1.4726417758
 H          7.8588864832       -4.5640652933        0.0403726151
 H          7.9015839749       -2.5143939286       -1.3421461548
 H          7.3073500304       -0.1484397304       -2.6104672075
 H          6.2311566317        1.9188278647       -3.4378932962
 H          3.9804222151        2.5405722124       -2.6895079766
 H          2.7527820552        1.1659553170       -1.0680223406
 H          2.2689281958       -3.3124789304       -0.1054403898
 H         -0.1631180366       -3.2731882467        0.3550074970
 H         -3.7917718350       -4.3066604423        0.2617785225
 H         -5.8680938686       -5.6140462772       -0.1776285203
 H         -7.9213938310       -4.4159303818       -0.8474315311
 H         -7.9289918744       -2.0141022535       -1.1100767652
 H         -7.7982910290       -0.1188546952       -1.5675345778
 H         -7.7039889654        2.2666637291       -1.9776319105
 H         -5.6269706484        3.5333200313       -1.5178327385
 H         -3.6775787269        2.3835725589       -0.6035376031
 H         -3.1156125827        2.1581654305        1.8543845205
 H         -1.9569125708        4.3388596241        2.0947328215
 H         -0.1476230636        0.9423016325       -0.9842200749
 H          2.6714354451        4.4576829708       -1.2810126271
 H          1.0066648090        5.0531011019       -1.5667671394
 H          1.9151647412        6.0637779489        0.5411482376
 H          2.2020548966        4.4121893163        1.1762154251
 H         -0.8287713357        0.6477654385        2.8313543747
  79
       -128.09271958
 C          1.0214431369        1.7424399739        2.9882679506
 C          2.3402823222        1.8169632043        2.5759826711
 C          2.8596045951        0.8606365225        1.7222433571
 C          2.0502249395       -0.1730570969        1.2226521057
 C          2.5794875992       -1.2728088042        0.4913654924
 N          3.8641639540       -1.2389636996       -0.0335585515
 C          4.8165266005       -2.2328690498        0.0684842372
 C          4.8152158364       -3.3769468314        0.8556288047
 C          5.9195320255       -4.2054465309        0.7916049510
 C          7.0090653791       -3.9034392990       -0.0226203393
 C          7.0310953990       -2.7486382188       -0.7823216836
 C          5.9334090041       -1.9025730056       -0.7358511763
 C          5.6258002692       -0.6455669926       -1.3618527894
 C          6.2974155471        0.1545505905       -2.2748468917
 C          5.6805668433        1.3073200756       -2.7231171360
 C          4.4074735808        1.6568787603       -2.2786908446
 C          3.7197729948        0.8790348507       -1.3667308083
 C          4.3429356160       -0.2699645678       -0.8995559346
 C          1.7925071624       -2.4442803474        0.3237326708
 C          0.4615888272       -2.4276970898        0.5851771149
 C         -0.1774455724       -1.2025580727        0.9866011951
 C         -1.5328626850       -1.0773211943        0.6720489510
 N         -2.3233415059       -2.1470187104        0.4755550417
 C         -3.5136929676       -1.6811671813        0.1090411910
 C         -4.6958174075       -2.4325145434       -0.1583887548
 C         -4.7251210014       -3.8154068857        0.0373507373
 C         -5.8814737388       -4.5249901550       -0.1861493127
 C         -7.0245221955       -3.8493046905       -0.6031338107
 C         -7.0035655296       -2.4868880248       -0.8072648847
 C         -5.8399287692       -1.7322665428       -0.6034067121
 C         -5.7708447815       -0.3021986758       -0.8501491615
 C         -6.8355930165        0.3875512662       -1.4384473003
 C         -6.7723219577        1.7343899441       -1.7182936452
 C         -5.6146493774        2.4526022963       -1.4263391480
 C         -4.5463032440        1.8176338986       -0.8477411808
 C         -4.5926255461        0.4446257164       -0.5361194625
 C         -3.5007132760       -0.2665080159        0.0114782878
 N         -2.2418546454        0.1105848844        0.4013835841
 C         -1.6882332167        1.3986706392        0.4548395730
 C         -2.2337277166        2.3676643543        1.2955614868
 C         -1.6032572511        3.5845834463        1.4393688515
 C         -0.4214022156        3.8531671947        0.7585850793
 C          0.0897640607        2.9068932148       -0.1359559401
 C         -0.5464424920        1.6837473127       -0.2814391994
 O          1.2180998668        3.1381786594       -0.8749737974
 C          1.6360952072        4.4863653773       -0.8650464549
 C          1.5518635895        5.0529972111        0.5500798795
 O          0.2139369205        5.0413630461        0.9973285306
 C          0.6699332407       -0.1805792927        1.5602880208
 C          0.1998910152        0.7363403860        2.4934950648
 H          0.6255478354        2.4607288195        3.6902536023
 H          2.9817789268        2.6038426193        2.9478071197
 H          3.9055309784        0.8938725762        1.4561123350
 H          3.9856178619       -3.6065652877        1.5061676403
 H          5.9404162175       -5.1048582097        1.3889176577
 H          7.8518511013       -4.5777621990       -0.0482417324
 H          7.8850873327       -2.5049122591       -1.3960350614
 H          7.2757898478       -0.1271093023       -2.6337116959
 H          6.1848166643        1.9418187219       -3.4366604940
 H          3.9390845672        2.5510420426       -2.6618137419
 H          2.7332428100        1.1629647219       -1.0370568196
 H          2.2571875913       -3.3209837798       -0.1002151862
 H         -0.1710825439       -3.2735148224        0.3761905699
 H         -3.8198973489       -4.2956826023        0.3742794287
 H         -5.9084462267       -5.5936568430       -0.0346252824
 H         -7.9401937542       -4.3979596089       -0.7700739279
 H         -7.9160356404       -2.0066174171       -1.1227496463
 H         -7.7358170872       -0.1432006165       -1.7028322225
 H         -7.6147818589        2.2300450736       -2.1770519461
 H         -5.5553994837        3.5044495968       -1.6637079693
 H         -3.6442601142        2.3729198914       -0.6502762677
 H         -3.1333365188        2.1498853894        1.8507073482
 H         -1.9918501047        4.3387164612        2.1042502027
 H         -0.1304937419        0.9565386999       -0.9604330003
 H          2.6625594535        4.4939837066       -1.2343806453
 H          0.9967113789        5.0798557064       -1.5331938293
 H          1.8808977720        6.0923402970        0.5839855982
 H          2.1731896335        4.4415389803        1.2189435669
 H         -0.8185776272        0.6599594726        2.8420707762
  79
       -128.09235928
 C          1.0417568955        1.7914969553        2.9947718962
 C          2.3592207274        1.8571057602        2.5759985118
 C          2.8721809311        0.8890371585        1.7319597163
 C          2.0583819629       -0.1504110094        1.2520891274
 C          2.5826924678       -1.2618040757        0.5354821473
 N          3.8583238669       -1.2356518100       -0.0110640678
 C          4.8029220741       -2.2383381637        0.0777200971
 C          4.8189905552       -3.3620222965        0.8935000112
 C          5.9098035883       -4.2060949103        0.8073112813
 C          6.9692018732       -3.9388534862       -0.0572729392
 C          6.9756096222       -2.8030648160       -0.8454318929
 C          5.8915724550       -1.9410862257       -0.7763291102
 C          5.5750400260       -0.6942438115       -1.4182130861
 C          6.2198707710        0.0753741517       -2.3755857712
 C          5.6023582616        1.2279531698       -2.8234173966
 C          4.3549303238        1.6079489508       -2.3337005909
 C          3.6931883356        0.8594626253       -1.3788432629
 C          4.3165039598       -0.2904625673       -0.9143542565
 C          1.7965827716       -2.4384690198        0.4002841949
 C          0.4673667129       -2.4163670518        0.6675304841
 C         -0.1704745439       -1.1802455356        1.0388629846
 C         -1.5211553725       -1.0592568544        0.7059542874
 N         -2.3037531363       -2.1346300089        0.5051950647
 C         -3.4894514726       -1.6778087633        0.1141701633
 C         -4.6604541530       -2.4385137370       -0.1745967572
 C         -4.6785713526       -3.8228005090        0.0126419697
 C         -5.8224604550       -4.5434568434       -0.2373054674
 C         -6.9643669934       -3.8773555332       -0.6725311224
 C         -6.9543412161       -2.5135306087       -0.8677316383
 C         -5.8032726959       -1.7473601184       -0.6367425925
 C         -5.7437586109       -0.3155897808       -0.8764066298
 C         -6.8117583503        0.3697878658       -1.4641711915
 C         -6.7545401554        1.7168524395       -1.7438571340
 C         -5.5990886588        2.4397333761       -1.4546188618
 C         -4.5295527649        1.8103546455       -0.8721868801
 C         -4.5719383175        0.4384220478       -0.5555604246
 C         -3.4823140539       -0.2640034051        0.0075566687
 N         -2.2316408489        0.1226207481        0.4144672507
 C         -1.6883166819        1.4149877748        0.4709881098
 C         -2.2542661888        2.3830528163        1.2990016132
 C         -1.6361595741        3.6059610141        1.4460465227
 C         -0.4459769812        3.8807071035        0.7824836916
 C          0.0878969905        2.9339168155       -0.0981155273
 C         -0.5374380356        1.7057084847       -0.2489367141
 O          1.2287947320        3.1676720349       -0.8163299766
 C          1.6469110173        4.5159469023       -0.7989932352
 C          1.5251191933        5.0879979672        0.6111641417
 O          0.1761650302        5.0754870503        1.0242851292
 C          0.6794747892       -0.1504862431        1.5959704879
 C          0.2149748301        0.7816120723        2.5164151079
 H          0.6505413584        2.5201543491        3.6887525068
 H          3.0047836084        2.6465210493        2.9353916228
 H          3.9165205752        0.9161316747        1.4587671806
 H          4.0134687027       -3.5635280447        1.5825316360
 H          5.9442174525       -5.0896559007        1.4271040575
 H          7.8014037512       -4.6253297910       -0.1002499773
 H          7.8070909823       -2.5867314765       -1.4989927747
 H          7.1783291245       -0.2292913377       -2.7678683134
 H          6.0862428664        1.8389690037       -3.5708141037
 H          3.8858322585        2.5029364343       -2.7142037083
 H          2.7258906775        1.1667341249       -1.0148508063
 H          2.2598944577       -3.3247040866       -0.0047317268
 H         -0.1661026300       -3.2668409647        0.4816803596
 H         -3.7745161440       -4.2953674447        0.3633058576
 H         -5.8409059793       -5.6131771815       -0.0921833535
 H         -7.8706477859       -4.4346929364       -0.8605797752
 H         -7.8654229610       -2.0420535071       -1.1999720346
 H         -7.7100571216       -0.1643983120       -1.7279953952
 H         -7.5995348626        2.2088084119       -2.2019064364
 H         -5.5431073274        3.4908820502       -1.6957547887
 H         -3.6298130672        2.3692872348       -0.6743464400
 H         -3.1604505809        2.1604343920        1.8413733439
 H         -2.0416035302        4.3603831276        2.1004769495
 H         -0.1049900098        0.9782262222       -0.9172076788
 H          2.6829655199        4.5214593631       -1.1408219766
 H          1.0261862433        5.1073572933       -1.4861555732
 H          1.8512402732        6.1279984398        0.6493870296
 H          2.1296965625        4.4803563850        1.2983892573
 H         -0.8035189064        0.7157164109        2.8671300224
