  79
       -128.09376850
 C          0.9023205340        1.5960451260        2.9105621903
 C          2.2294572821        1.7245226257        2.5430945578
 C          2.7924969412        0.8355694462        1.6445111004
 C          2.0182101126       -0.1721435268        1.0450176113
 C          2.5894051040       -1.2171465979        0.2672274283
 N          3.9268656106       -1.1887843900       -0.1085463337
 C          4.8412764577       -2.2036949247        0.0913704702
 C          4.6979313789       -3.3915718693        0.7959767125
 C          5.7921794636       -4.2321584142        0.8723278228
 C          7.0074608335       -3.8995720153        0.2776210852
 C          7.1658268341       -2.7034677981       -0.3972895160
 C          6.0805269858       -1.8450368763       -0.4901297279
 C          5.8916957218       -0.5476521247       -1.0795193168
 C          6.7169639257        0.2993097871       -1.8047209080
 C          6.1940174301        1.4898757747       -2.2726261017
 C          4.8633558219        1.8291952059       -2.0372023132
 C          4.0215667474        1.0053659435       -1.3143244478
 C          4.5500081514       -0.1802549173       -0.8205810043
 C          1.8097502839       -2.3578249030       -0.0609402437
 C          0.4680527406       -2.3703436718        0.1452221464
 C         -0.1933019194       -1.2078284598        0.6669987358
 C         -1.5647653771       -1.0917296330        0.4139312425
 N         -2.3556878471       -2.1572126303        0.2090733430
 C         -3.5806638856       -1.6851333710       -0.0090207733
 C         -4.7772298019       -2.4363910987       -0.2002969083
 C         -4.7629977329       -3.8320763658       -0.1367244386
 C         -5.9281458772       -4.5472835612       -0.2836205049
 C         -7.1236011096       -3.8648618507       -0.4882776437
 C         -7.1472698304       -2.4890372803       -0.5593605602
 C         -5.9781104429       -1.7266015820       -0.4286517269
 C         -5.9601011089       -0.2785546881       -0.5451944062
 C         -7.1123721708        0.4410145904       -0.8773529561
 C         -7.1022557369        1.8079173600       -1.0440302979
 C         -5.9110146310        2.5172432204       -0.9053424071
 C         -4.7587303383        1.8544671629       -0.5706646164
 C         -4.7510152704        0.4618421076       -0.3572984099
 C         -3.5904298453       -0.2663373375       -0.0109784589
 N         -2.3017215820        0.1025709687        0.2760079430
 C         -1.7184133876        1.3779349280        0.3052482802
 C         -2.1682752151        2.3534127320        1.1936327891
 C         -1.4818018160        3.5428893466        1.3112184458
 C         -0.3347383069        3.7757531699        0.5618328210
 C          0.0792665023        2.8245445163       -0.3767885691
 C         -0.6157186368        1.6320866854       -0.4993899611
 O          1.1692744959        3.0197184166       -1.1814871432
 C          1.6434867348        4.3491276836       -1.1766960847
 C          1.6742019776        4.8884187725        0.2512370700
 O          0.3663368556        4.9310713158        0.7786867056
 C          0.6269556027       -0.2216152995        1.3326207871
 C          0.1166817237        0.6120805350        2.3222157353
 H          0.4725694577        2.2540248539        3.6504506542
 H          2.8427381284        2.4972990673        2.9849537841
 H          3.8463149286        0.9042333492        1.4205959019
 H          3.7675406786       -3.6449696298        1.2799764629
 H          5.7051726955       -5.1645895035        1.4100273659
 H          7.8387865122       -4.5837995684        0.3574537409
 H          8.1140836142       -2.4378851260       -0.8397484727
 H          7.7422590381        0.0267048378       -2.0040058594
 H          6.8195065135        2.1638961490       -2.8385247335
 H          4.4783868581        2.7554360672       -2.4372195089
 H          2.9906950524        1.2757021980       -1.1466290945
 H          2.2961883522       -3.1852051783       -0.5546609258
 H         -0.1497829533       -3.1913019845       -0.1775895382
 H         -3.8159762014       -4.3184047123        0.0368107909
 H         -5.9210306662       -5.6257972545       -0.2345680353
 H         -8.0454537428       -4.4184879563       -0.5938067940
 H         -8.0986545832       -2.0062475452       -0.7157017137
 H         -8.0450951235       -0.0791516675       -1.0229220533
 H         -8.0140179898        2.3268733289       -1.2994016031
 H         -5.8942601365        3.5848049144       -1.0668085115
 H         -3.8357517517        2.4045075577       -0.4910360887
 H         -3.0320800195        2.1605230764        1.8111974673
 H         -1.7961619498        4.3000892547        2.0109116031
 H         -0.2702382095        0.9006563810       -1.2125278224
 H          2.6427419288        4.3226284221       -1.6129179706
 H          0.9881418100        4.9816168656       -1.7911792928
 H          2.0556800729        5.9095125522        0.2846021699
 H          2.3038416583        4.2328014505        0.8688019362
 H         -0.9052489050        0.4836915662        2.6438453229
