86
 energy: -123.698024502211 gnorm: 0.000094571877 xtb: 6.7.1 (edcfbbe)
C            4.52806201733627        5.05342118311199        0.04381581546263
C            3.69248402786551        3.81003873179042        0.00518384095029
C            3.81776064861984        2.84864063352869        0.99822315749642
C            3.04730572011003        1.70275418500672        0.99181674071411
C            2.12458890379913        1.48583372290176       -0.02617524724149
C            1.26554259705356        0.28990222265172       -0.03413597232717
C            1.82434439692394       -0.98092860445468        0.00452442394879
C            3.29134422275272       -1.12510040701546        0.11774940610553
C            4.12926807768945       -0.59255742343500       -0.85676909298344
C            5.50110449667915       -0.72153613267738       -0.74857982861384
C            6.05499781997923       -1.38107849610698        0.33543563070662
C            5.22865332837479       -1.91044632421720        1.31214501638258
C            3.85656351794852       -1.78471797495282        1.20443629212947
C            1.01563362087855       -2.12606968944846       -0.07942510803063
C            1.65785578520056       -3.44151938401582        0.03958115582325
C            2.70214443600360       -3.82612212265213       -0.80532709879581
C            3.33217426530042       -5.04345077391862       -0.63562948700593
C            2.94016534075747       -5.89895143427352        0.38176769950485
C            1.90458926386923       -5.52948689783869        1.22688439650147
C            1.26883495907952       -4.31626603896713        1.05978185892948
C           -0.39603424931861       -1.98455496998036       -0.19794385877140
C           -1.26518776812251       -3.02820133424898       -0.59910738038797
N           -0.81783829404845       -4.26836457856066       -0.97903835752560
C           -2.66666335793631       -2.81053788886079       -0.68525729845180
C           -3.25525685553269       -1.63706697491190       -0.29706462871177
C           -4.69311138713255       -1.42171496678967       -0.30058914110192
C           -5.56022789143033       -2.25414769882712       -1.00086418610655
C           -6.93361522716848       -2.05331699829893       -0.98426110805077
C           -7.46533578661519       -0.99487904898824       -0.26858955982998
C           -6.62967917667259       -0.13994798805217        0.42141547794785
C           -5.23662066356890       -0.32881928206974        0.42430320363873
C           -4.34857931543440        0.53677847871014        1.13083266035766
N           -4.82445068147428        1.57550987512952        1.89607317516483
C           -2.96277965065390        0.40788837591387        0.96784403430281
C           -2.40066701757718       -0.58724289390914        0.20178980096238
C           -0.96580347838735       -0.68891383915854       -0.01147542686760
C           -0.14812056969664        0.43667555140351       -0.02361140738518
C           -0.70896584055574        1.79639198120315       -0.10805536175052
C           -1.58239944402445        2.12402822038379       -1.14161048346124
C           -2.05013694139047        3.41532756388711       -1.27413787019916
C           -1.66000449197494        4.41936878166303       -0.39737061377154
C           -2.16474425163807        5.81920214322215       -0.57486512200481
C           -0.78626218841259        4.10127913632684        0.64560747341711
C           -0.32829027962149        5.15523469473302        1.60791785095522
C           -0.33005179333322        2.80036970590056        0.77889115925343
C            2.00934172718824        2.44396389924993       -1.02931582225452
C            2.77144537718501        3.59951312719811       -1.02510305592578
C            2.59555872048102        4.61592899036754       -2.11228252175659
H            5.19113597119790        5.04452345012921        0.90544933397181
H            5.13383109156414        5.13917793719041       -0.85809659536307
H            3.89650229794201        5.94002829726458        0.10238337700422
H            4.52734284353857        3.00461719785262        1.79927394545562
H            3.14711487559499        0.98159024615499        1.78976085001556
H            3.69819484015109       -0.08107464622445       -1.70553233918720
H            6.14112352916945       -0.30595712189975       -1.51371757616296
H            7.12739093653985       -1.48160581722812        0.41940207616785
H            5.65505909592584       -2.42383055149341        2.16206256496665
H            3.21409489273794       -2.19300498276586        1.97158639475801
H            3.00834195409167       -3.16675515083656       -1.60451823950153
H            4.13672763102041       -5.32595845328409       -1.29927947231288
H            3.43995282309225       -6.84666653977676        0.51692491988712
H            1.59940535377805       -6.18984193723387        2.02595878856459
H            0.46802170345676       -4.02341223384445        1.72343820933076
H            0.16112932834966       -4.37874345109830       -1.18733849724268
H           -1.46069299302175       -4.83666041432531       -1.50557571729048
H           -3.26363346020697       -3.64057148208429       -1.03241847795677
H           -5.16642594434844       -3.06977016145757       -1.58717610548116
H           -7.58108452547882       -2.71903748268810       -1.53530602994886
H           -8.53312534754028       -0.83017794560864       -0.25489065172264
H           -7.06225979084432        0.69670447114692        0.94993481665570
H           -4.15109736612617        2.03960659910733        2.48307185137000
H           -5.75513329920050        1.50376065481193        2.26994958967236
H           -2.33133935013242        1.12200755380706        1.47347148943892
H           -1.88470202795898        1.36152067133693       -1.84504390166014
H           -2.72483970220899        3.65424068576283       -2.08462006238129
H           -2.83898460093575        5.87952642439951       -1.42561452422480
H           -1.33657161854896        6.50842170322102       -0.74039372715150
H           -2.69915313782821        6.15378123483906        0.31425839043759
H           -1.17460577822070        5.59822621662828        2.13326626575685
H            0.18680236043278        5.95581798386454        1.07781313543440
H            0.35615449586237        4.73389345167820        2.33996881446919
H            0.33568812956009        2.55722771980532        1.59516395286946
H            1.30438833461979        2.27998883757250       -1.83235250454713
H            2.30293889291967        5.57774590875274       -1.69177427220623
H            1.82632376330523        4.29868872782994       -2.81181316781071
H            3.52654147673175        4.76369529227276       -2.65953782445193
