86
 energy: -123.764646823424 gnorm: 0.000030840441 xtb: 6.7.1 (edcfbbe)
C            4.90572815748970        4.11906963858039        0.14414627305610
C            3.90641557469102        3.00298403310718        0.11073248991308
C            3.81805214564985        2.10840771965047        1.16752072948807
C            2.89736159548260        1.07842167088714        1.16266506566533
C            2.03675947893992        0.91975724787751        0.08416837685962
C            1.02859795025207       -0.16086054752766        0.07053751569069
C            1.45451782996437       -1.49974418733441        0.13085737398150
C            2.89009939092240       -1.79893517678465        0.32331600145639
C            3.82593527430659       -1.39369860696521       -0.62215281969817
C            5.16764014627692       -1.67344613180120       -0.44393782753576
C            5.59243701789047       -2.35806274959305        0.68195138138756
C            4.66785318211433       -2.76064111404628        1.63031898809549
C            3.32535230431740       -2.48331350799546        1.45279285345022
C            0.54242880223460       -2.52646927985376       -0.04326987415889
C            1.07714750853362       -3.90360401756929        0.05279298189733
C            2.01883101194155       -4.37951858841736       -0.85608147192130
C            2.57302895619878       -5.63592732012249       -0.69487905119229
C            2.20268993321756       -6.42950102041132        0.37812183044933
C            1.26863968141421       -5.96419689661723        1.28911893307463
C            0.70970490132768       -4.70963171530511        1.13033540116385
C           -0.83309313161638       -2.24051159392431       -0.22304801114328
C           -1.79746489096322       -3.21239080193559       -0.65804279518211
N           -1.41618325983912       -4.43404056957707       -1.17352148783459
C           -3.12653328691205       -2.87612672788844       -0.71225515500403
C           -3.62111948418431       -1.63525380956506       -0.26811336869395
C           -5.02804152283051       -1.34180846810519       -0.20905737079225
C           -6.00083119185244       -2.23548919566532       -0.69189666625310
C           -7.34029145031002       -1.95043096307499       -0.63631519521167
C           -7.77618327440405       -0.74722144694756       -0.08121601824258
C           -6.85753679552343        0.14784629997347        0.39931515715559
C           -5.47710452514474       -0.11547865321817        0.34628528483561
C           -4.50879148214840        0.80256629359884        0.86396500502062
N           -4.90388322031551        1.93963496562746        1.55520588273430
C           -3.17528062734568        0.51674632166869        0.75102143770669
C           -2.69487681550841       -0.65753632394493        0.13717744489575
C           -1.28550795181298       -0.90907549036666       -0.01686514568380
C           -0.32546996497921        0.13233717532474        0.01851313981514
C           -0.70275619982221        1.55195856674500       -0.14097367666931
C           -1.42157226165431        1.94987235022958       -1.26340862622669
C           -1.69637933802681        3.28723232847516       -1.47098943755195
C           -1.25985410952438        4.26137760283321       -0.58330316653572
C           -1.55531090317212        5.70807044750446       -0.83992402516173
C           -0.53732942431652        3.87037104374914        0.54760509383859
C           -0.03542811001350        4.88911069684500        1.52515723338308
C           -0.27327632655756        2.52628787889413        0.75388108694492
C            2.13313633957912        1.80681421371441       -0.98130441506742
C            3.04789655433772        2.84652921078243       -0.98112444802129
C            3.10341122192038        3.79505156688338       -2.13977220721350
H            5.48921571079532        4.08587953462839        1.06086185988007
H            5.58790896478401        4.05042683368731       -0.70294152403401
H            4.40529745932851        5.08568248225649        0.08699285145409
H            4.47987938467476        2.22293025850939        2.01485561265679
H            2.83618521542014        0.40401978633116        2.00437163207503
H            3.49537130875830       -0.86252909735715       -1.50311740940303
H            5.88516063444319       -1.35599240596852       -1.18678944976991
H            6.64130463102081       -2.57615219913835        0.82071116545166
H            4.99376416472133       -3.29237948050290        2.51270592225481
H            2.60619901554979       -2.79184247146164        2.19820226878577
H            2.30850671909549       -3.76016733734972       -1.69176287528255
H            3.30234865571398       -5.99491692681240       -1.40598660913529
H            2.64284489993305       -7.40723375117474        0.50640195574141
H            0.98035693757863       -6.57807351633911        2.13013640884634
H           -0.01545918590327       -4.33989418509250        1.84211763342215
H           -0.50514714027727       -4.78648329677581       -0.93551508819851
H           -2.14299491328735       -5.12857553422090       -1.22764949135338
H           -3.80581419976385       -3.62680412829946       -1.08519697715634
H           -5.69708828390474       -3.17179363742724       -1.13194315026578
H           -8.06136284429171       -2.65665610023858       -1.02197426744510
H           -8.83240908210243       -0.52552905827584       -0.03208411293233
H           -7.21130440599720        1.07120490711425        0.83439826649987
H           -4.16698925182424        2.61773911035902        1.67790925571428
H           -5.77706510106556        2.35354425055826        1.27184648261700
H           -2.47543469918872        1.20590618082837        1.19356491198482
H           -1.75871428358246        1.20748962182775       -1.97200228525168
H           -2.25458469673437        3.58367512821729       -2.34840750770007
H           -2.13603648500657        5.82663496643047       -1.75140433708941
H           -0.63052886857115        6.27559501048459       -0.94304931854256
H           -2.11665126714805        6.14201265831051       -0.01243706665790
H           -0.86047101274539        5.45768881235335        1.95451083081186
H            0.63022844632032        5.59544917449818        1.02992423752200
H            0.51305018626795        4.40816409303665        2.33100486510049
H            0.27486859244444        2.22580234451908        1.63559461315179
H            1.47312898815774        1.68262012763870       -1.82855103900536
H            2.35684711185315        3.53299592875573       -2.88515302799543
H            4.08701421628176        3.77645664264142       -2.60886495885058
H            2.91500606802674        4.81557390509858       -1.80732997886711
