  32
  -58.3867395015000        1.00000000000000      !
 N          6.0050557352        1.9839159002        0.0267159884
 C          5.0140763296        1.4080063796        0.0154042016
 C          3.7831471753        0.7119259874        0.0033080256
 C          2.5932724254        1.4062912783        0.0004152010
 C          1.3717740955        0.7141073362       -0.0063294164
 N          0.2183911406        1.4298817890       -0.0084933707
 C         -0.8776115373        0.7289388159       -0.0090571818
 C         -0.8774994053       -0.7284018774       -0.0064249236
 N          0.2185695301       -1.4292131873       -0.0080665133
 C          1.3718063213       -0.7132988332       -0.0087552299
 C          2.5932198342       -1.4056167614       -0.0092896088
 C          3.7831370726       -0.7113519692       -0.0034008965
 C          5.0135016593       -1.4084645688       -0.0042437805
 N          6.0039514344       -1.9850677582       -0.0075967960
 C         -2.2582093176       -1.1769526590       -0.0003184665
 C         -2.8893506902       -2.3967730657        0.0077335013
 C         -4.2960416946       -2.4169109663        0.0153273415
 C         -5.0581776375       -1.2719164715        0.0143076840
 C         -4.4409854844       -0.0002866451        0.0055752375
 C         -5.0586336494        1.2711084790        0.0032974622
 C         -4.2969243297        2.4163367115       -0.0044229108
 C         -2.8902181847        2.3967228542       -0.0097327662
 C         -2.2585011113        1.1771743469       -0.0077769129
 C         -3.0433771752       -0.0000017722       -0.0010805592
 H          2.5780216205        2.4855749941        0.0045232131
 H          2.5776822594       -2.4848732839       -0.0133466131
 H         -2.3284314019       -3.3183881816        0.0086828454
 H         -4.7922391535       -3.3765656694        0.0221094412
 H         -6.1365072430       -1.3381467797        0.0203451599
 H         -6.1369673154        1.3371359999        0.0081541163
 H         -4.7934783745        3.3758209562       -0.0058341277
 H         -2.3297093146        3.3185716771       -0.0150894713
