129
 energy: -197.932971469328 gnorm: 0.000168038196 xtb: 6.7.1 (edcfbbe)
C            5.64094425749181        1.74247689178980        3.64837684007654
C            5.16068212475710        3.04205886038961        3.70824061863471
C            4.84068897926990        3.73712166984975        2.54923092749501
C            5.02833749201367        3.11081517964646        1.33689449777921
C            5.52954367596948        1.80145952028822        1.27053545045025
C            5.83035186599694        1.10826212598729        2.43095791160451
C            5.64973868576233        1.42299670321607       -0.12861135773764
C            6.08261801634361        0.25147468949208       -0.72669554999836
C            6.10870353183233        0.18344445411409       -2.11033451650873
C            5.71369089766079        1.26365047436901       -2.88482288240924
C            5.26220873860706        2.43573982071495       -2.29320774810429
C            5.23380462673560        2.50433861814491       -0.91802059670138
C            4.70201265158255        3.61729921010368       -0.04357798692162
C            5.15593032897978        5.00289740019726       -0.40994953777539
C            6.42836736267192        5.52778513395576       -0.36296510115521
C            6.61873123041014        6.84164915303381       -0.77105080471871
C            5.55360347829621        7.60710176771792       -1.22117857746678
C            4.27173709347808        7.08321499934531       -1.27260442537009
C            4.07235788521436        5.77495344258810       -0.86323207870482
C            2.86645169229467        4.96683890818702       -0.79331506485408
C            1.54713641525573        5.22212995606609       -1.13523219047336
C            0.60341047689941        4.22521600390220       -0.95828930452429
C            0.94298647913899        2.97717378490987       -0.43076564501348
C           -0.05622945184372        1.91842395860407       -0.23878106927559
C           -1.37530299678049        2.23189589462886        0.12015752755742
C           -2.31596969764906        1.21014679874736        0.31095893118298
C           -3.69838755603638        1.53747211071786        0.68758471723880
C           -3.96148909342237        2.54179379981424        1.62036479166570
C           -5.25287761238613        2.84716490392286        2.01039172278529
C           -6.30448954628108        2.13690001490584        1.45368834167892
C           -6.04565697049920        1.13392045458120        0.50762337894693
C           -4.76243382437901        0.82941600379927        0.12263736562119
C           -7.33244029446771        0.49422239433169        0.04549370715160
C           -7.35868218817833       -0.99883670511185        0.26461862930837
C           -7.19973868527499       -1.69181977999254        1.44446705287221
C           -7.24997210716737       -3.07899940488618        1.40768226766198
C           -7.45473211951252       -3.75081726826552        0.21181558943961
C           -7.61426101549824       -3.05647660060598       -0.97685137819703
C           -7.56491475201318       -1.67251858579316       -0.94800794189180
C           -7.69055361006884       -0.68470625633701       -2.00823558066681
C           -7.90727441198936       -0.82650155656262       -3.36887758021886
C           -7.98604144598368        0.31508365321736       -4.15038188859796
C           -7.85040528062138        1.57499663341126       -3.58701176017483
C           -7.63274800997693        1.72499929152493       -2.22391103225878
C           -7.55492801100616        0.59212597509653       -1.44429223272065
C           -8.35949231062361        1.24950585531419        0.85352503035702
C           -9.72760818215331        1.09216244978257        0.85707152423584
C          -10.48453760379909        1.90909095243340        1.68662417300496
C           -9.87770152543967        2.86153769660839        2.49164835358417
C           -8.50157241769566        3.02257322727461        2.49059011325623
C           -7.73948923837762        2.21060742424125        1.66635160926112
C           -1.93587281068301       -0.10692438810196        0.16695118434591
C           -0.60190194226801       -0.47127771144582       -0.16443489005493
C           -0.18842103726366       -1.82516577171900       -0.21914061445737
C           -1.14760195653383       -2.90309177346500       -0.29769908239861
C           -0.79316646141224       -4.20737006952035       -0.23700944450965
C            0.57845871655840       -4.55581344396654       -0.07931246040172
C            1.55998882759318       -3.49397575452085       -0.06851872864478
C            1.20461150873182       -2.19550762477378       -0.14617094137209
C            2.93889919167101       -4.08847214407318        0.08092296527940
C            3.75825217472256       -3.57059015527828        1.23673520382705
C            3.39101999380694       -3.43938706474657        2.55807238033105
C            4.33417381143846       -2.97325255638935        3.46413946473694
C            5.62152966317807       -2.66221113622473        3.05296006941113
C            5.99521018569111       -2.79331529505735        1.72485458347485
C            5.05434386564164       -3.24085816123551        0.81174329998227
C            5.13419312150202       -3.44559741938095       -0.62557707803304
C            6.18265442693609       -3.28230218934404       -1.51567679784235
C            5.95747359909434       -3.53658159546429       -2.85926485760200
C            4.71062895182958       -3.94547842208285       -3.30797117134763
C            3.66096371723334       -4.13191740236604       -2.41871472954962
C            3.88143860335270       -3.88198218374220       -1.08209235117485
C            2.62852815403279       -5.56508697899742        0.22048732258720
C            3.49540812547277       -6.60331300312720        0.41606614399020
C            2.98246465271784       -7.90197653333429        0.49380466055138
C            1.60913886065497       -8.13544594184025        0.37008350160254
C            0.72390666339227       -7.10503951342406        0.17325642174873
C            1.22168819679348       -5.78527897548095        0.09495031375939
C            0.30764641620963        0.59613540734516       -0.38856780754031
C            2.27242489922331        2.73035191225707       -0.07799008131182
C            3.21012053014497        3.71171521945779       -0.27482422634441
H            5.87153273915668        1.21830492239332        4.56455743989688
H            5.02773286637868        3.51806897804627        4.66874646590787
H            4.45569601877607        4.74555303900550        2.59633724097581
H            6.19801558265744        0.09414819971372        2.38784957435318
H            6.38225884815874       -0.59372411682851       -0.12692697742282
H            6.43537912717392       -0.72524039156172       -2.59332616935568
H            5.74836449283319        1.18877659805854       -3.96178297639695
H            4.93869616412258        3.27262059538483       -2.89526289335308
H            7.25825694487541        4.93038970499288       -0.01420875470680
H            7.60871877861654        7.27238262369510       -0.73813881208765
H            5.72650867409424        8.62631067662474       -1.53524171110022
H            3.44529036502123        7.68350360422597       -1.62349686025262
H            1.25825132498759        6.17899953928136       -1.54471398001674
H           -0.41813441135150        4.41013474449520       -1.25690003220836
H           -1.67052602743582        3.26106124456392        0.24879215108934
H           -3.13296729631194        3.07246348432362        2.06667522833976
H           -5.43492799393565        3.62078950062763        2.74173033140982
H           -4.57760391741666        0.06527154511866       -0.61860668248741
H           -7.03930136402609       -1.16747539211552        2.37546269941178
H           -7.12752828173133       -3.64152138529808        2.32163743379820
H           -7.48991858255098       -4.83068601437726        0.20793702021140
H           -7.77259582835093       -3.58436475887263       -1.90566931772825
H           -8.01392554568576       -1.80546319375000       -3.81235252072850
H           -8.15583389783962        0.22341487222371       -5.21340224755793
H           -7.91553960061248        2.45048303150704       -4.21623715648685
H           -7.52780412826299        2.70625691646840       -1.78409666765201
H          -10.19973531312643        0.35036150841640        0.22924155513843
H          -11.55908967738728        1.80147209715355        1.70482970908763
H          -10.48758152563561        3.48593961800477        3.12837444584003
H           -8.03347312644585        3.76534657859526        3.11952219518859
H           -2.65974095037106       -0.87488563550652        0.38773679191932
H           -2.18668332158310       -2.65254882512016       -0.44341920144245
H           -1.53455741352012       -4.98938880573192       -0.30834857729791
H            1.96357369463832       -1.43029186481489       -0.09736549890337
H            2.39116631452272       -3.69161739333856        2.88030791990111
H            4.06413352434722       -2.85719243469529        4.50341486034929
H            6.34204100147038       -2.31465713864156        3.77972923959882
H            7.00255367300496       -2.55665818456415        1.41211174344814
H            7.15803572493912       -2.96948473964103       -1.17219201211742
H            6.76418896276450       -3.41656251661134       -3.56850609644184
H            4.55737416897976       -4.13093444680849       -4.36094146108518
H            2.69425419967881       -4.46709112310742       -2.76560380505480
H            4.55783613631456       -6.42896995879040        0.50943680962174
H            3.65332232690032       -8.73282937185574        0.64898502606656
H            1.24444747486139       -9.15082810451855        0.43249356171038
H           -0.33570676971916       -7.28829470520344        0.07944381704129
H            1.30265769931535        0.37020150774401       -0.73614534191806
H            2.56099629848029        1.78587064097135        0.35916599654855
