129
 energy: -197.930972037413 gnorm: 0.000074803505 xtb: 6.7.1 (edcfbbe)
C            4.00708259416770        4.64673953466422        4.34781168708863
C            3.42691382891343        5.46943459331241        3.39399148213749
C            3.59116246651146        5.21355813698379        2.03919953632000
C            4.34249511965621        4.12141387652120        1.66529291603769
C            4.93020666969928        3.28492116546463        2.62475653398201
C            4.76333999319305        3.54734528245010        3.97447472785496
C            5.65141368816118        2.22784378024441        1.93410461478825
C            6.39304072874292        1.16280032333179        2.41714221925668
C            6.97576882803901        0.29473617008307        1.50842256391658
C            6.81632359241573        0.47869380791565        0.14349098625230
C            6.07818736580426        1.54696682606392       -0.34810617597642
C            5.50440640985975        2.41758751143891        0.55218597642379
C            4.67750695904947        3.64718879970485        0.27033979000390
C            5.40482613069526        4.70334392935259       -0.52809638504811
C            6.60557295622190        5.31420923229419       -0.24255386847778
C            7.07984944968354        6.28113069821183       -1.11918696951417
C            6.36022824303176        6.62586072007878       -2.25354209045938
C            5.15159127993018        6.01362687619425       -2.54335038126698
C            4.67297329832733        5.04633585577088       -1.67461663459396
C            3.46706082742827        4.23738721018722       -1.70953352796539
C            2.42185368632186        4.18530189229628       -2.61767753950626
C            1.38912955845052        3.29311976930044       -2.39326622105375
C            1.38785569634173        2.44220654096155       -1.28758953027398
C            0.28668474425905        1.48868517845262       -1.08767278987574
C           -1.03916081108922        1.90057035985554       -1.27592013789482
C           -2.09455503742866        1.00282510556987       -1.06287213770454
C           -3.48419201157333        1.42579554550049       -1.28310890427525
C           -3.81182982421290        2.23793281402464       -2.37015003907845
C           -5.11601417709293        2.62508121889214       -2.61871455851343
C           -6.11529673501330        2.19474397942150       -1.76049313318196
C           -5.78998495184581        1.38732583920493       -0.66032529140040
C           -4.49427910557918        1.00147912864433       -0.41552313060664
C           -7.02962070538420        1.03734376181452        0.12673225953459
C           -6.97274766411259        1.47293780215458        1.57082888599537
C           -6.79734987383427        2.74319791181068        2.07371693926999
C           -6.78355597986520        2.91180620633150        3.45186156738572
C           -6.94262728533593        1.82765592961938        4.30184416031209
C           -7.11823500744977        0.54840050228208        3.79897631298396
C           -7.13296743163666        0.37241531672746        2.42520236501197
C           -7.29590419652720       -0.82250727449072        1.61198721859069
C           -7.47653446927172       -2.15020461337969        1.96302557911456
C           -7.59954672149595       -3.09227919080714        0.95413526640222
C           -7.54405038698555       -2.71882045928486       -0.38032297765890
C           -7.36373762683976       -1.38979616541267       -0.73988088006310
C           -7.24156825140494       -0.45099626035588        0.26074108450535
C           -8.10614661440534        1.73813594619849       -0.66593756225002
C           -9.46141762768193        1.76985823982414       -0.42361129676309
C          -10.27138311599636        2.48919578972719       -1.29251177920589
C           -9.72868651700536        3.16038510560556       -2.37807557707857
C           -8.36565794583404        3.13059439331077       -2.62487594495222
C           -7.55103516129514        2.41452837879927       -1.76280088863300
C           -1.81912605309855       -0.28687623788561       -0.65968656052148
C           -0.48927619162809       -0.74776964889597       -0.48013835225142
C           -0.20876792626405       -2.08249259964949       -0.09009435528887
C           -1.19037000062535       -2.88336594483889        0.60185589581053
C           -0.93404618666274       -4.13745632237223        1.04116223094470
C            0.33818434276078       -4.72637589582241        0.78325927105233
C            1.31074920415134       -3.95684137409753        0.03857924670572
C            1.06829859282856       -2.69179587569566       -0.35834717694366
C            2.54362531516941       -4.79789117384174       -0.19165113506299
C            3.84902626987152       -4.15485083338608        0.20111406884509
C            4.21635993421056       -3.63838046483328        1.42463481429567
C            5.49550394343953       -3.11788499684544        1.56637896272108
C            6.38559454679422       -3.12222668915316        0.50299126609649
C            6.01706245430158       -3.62906080090011       -0.73227826758618
C            4.74068191971278       -4.14502011870233       -0.88245870836314
C            4.07696914889759       -4.73666582004247       -2.03276689806083
C            4.51352583413554       -4.95449661326137       -3.32926097526027
C            3.64443654012196       -5.54795990449636       -4.23050021563344
C            2.36326268487438       -5.91705093022213       -3.84798495121862
C            1.91947911468901       -5.70360842260617       -2.55001107469413
C            2.78135832724015       -5.11372921706406       -1.65173381711711
C            2.21831148756322       -6.04834186108189        0.59211573327717
C            2.99600989880729       -7.15227517353321        0.79829085661695
C            2.47095589521504       -8.21695606638595        1.53917306002451
C            1.17176251712429       -8.15562282171593        2.05527564713001
C            0.37563596025148       -7.05549523964058        1.85940259425312
C            0.88957322078517       -5.96510106004569        1.12007520595197
C            0.55166024126404        0.18960608105369       -0.71059306233433
C            2.44153121097427        2.49983389183007       -0.37215280573012
C            3.46114644949717        3.39634791993007       -0.58626340233429
H            3.86691107976601        4.86705983703396        5.39619166024085
H            2.84098272784594        6.32044154947222        3.70878927832108
H            3.14109946711126        5.85531888878909        1.29559279872185
H            5.21326630158695        2.90962193316604        4.72100421827841
H            6.51652903870395        1.01280412789075        3.47958897580111
H            7.56400649943025       -0.53563535650830        1.86989810466366
H            7.27220581826365       -0.21555456104425       -0.54667820869684
H            5.95748744465409        1.69388876807576       -1.41171714423090
H            7.16452409876090        5.04661828063087        0.64251893195456
H            8.02008123880106        6.77164377694767       -0.91432857378104
H            6.74854629703072        7.38250940828719       -2.91986000487431
H            4.59486894095210        6.28536984594568       -3.42802063889485
H            2.41250832410105        4.82694780343678       -3.48640961149108
H            0.57528963044192        3.23195645706288       -3.10138812845030
H           -1.24923077980621        2.92579474377306       -1.53850283378192
H           -3.02878852424338        2.54783650346003       -3.04684003106855
H           -5.34979057973196        3.24548314040363       -3.47133242350828
H           -4.25595393565530        0.39307919831591        0.44492961275228
H           -6.67435289048153        3.58743786763219        1.41080937127922
H           -6.64784345084483        3.89970202687905        3.86694102907028
H           -6.92950943202828        1.98368227292075        5.37083213499946
H           -7.24194561360037       -0.29260955130257        4.46517375693331
H           -7.51981295934141       -2.44623915473732        3.00078283281630
H           -7.74038121295170       -4.13259733644654        1.20959864295883
H           -7.64164653713951       -3.47092686359570       -1.14944018224801
H           -7.31943980460680       -1.09786466799441       -1.77922809120561
H           -9.88342817936544        1.24717238269636        0.42258957523040
H          -11.33703720234105        2.52656118422305       -1.12052582589673
H          -10.37893771660754        3.71375109134480       -3.04006586924307
H           -7.94778322872391        3.65461744378296       -3.47173094734178
H           -2.63796170301601       -0.98144975910826       -0.55614641192528
H           -2.14696158048926       -2.43634180010993        0.82408315297279
H           -1.67722493127533       -4.69859297812231        1.58794786617184
H            1.80903830929522       -2.15024334015888       -0.92664468951536
H            3.52471580189156       -3.64177592253647        2.25466278285422
H            5.80150575035889       -2.70839052719766        2.51770508444014
H            7.38179458749249       -2.72823678543278        0.63967347308345
H            6.71210764872399       -3.62582739213152       -1.55903216793618
H            5.51006208622548       -4.66910651798971       -3.63235733106471
H            3.96811167492350       -5.72652913425891       -5.24570138085678
H            1.70339202349774       -6.37759121669294       -4.56849332635407
H            0.92242877422305       -5.99284917509243       -2.25077662322938
H            3.99796323767578       -7.20716694926760        0.39731596835255
H            3.07250545416786       -9.09611741615927        1.71113273095538
H            0.79483305299762       -8.99626444346594        2.62028044258317
H           -0.62515787983137       -7.01028485300766        2.26129614046849
H            1.57739319749995       -0.10875208097465       -0.55973512808876
H            2.44166912879951        1.86223491626733        0.50024420249046
