129
 energy: -198.026761024564 gnorm: 0.000057795309 xtb: 6.7.1 (edcfbbe)
C            4.26504154467280        4.53301045231236        4.44740666885049
C            3.65653385187893        5.40606159793887        3.55823614231690
C            3.75463043600510        5.20804775575806        2.18741538988061
C            4.46962184265935        4.12254354910546        1.73173965719280
C            5.08586055234446        3.23517622187598        2.62587006125255
C            4.98457323792303        3.43984807202289        3.99197428835814
C            5.75857775734832        2.19968901487606        1.85741557209928
C            6.50302508337305        1.10234837213137        2.25724209344035
C            7.03188700584818        0.26975402231763        1.28435545813900
C            6.81765698264867        0.52076418510099       -0.06229420690703
C            6.07530194029279        1.62051246184843       -0.47071604502698
C            5.55440405825181        2.45480958097786        0.49367742833148
C            4.73039585083038        3.70507104815196        0.30452109487391
C            5.43388992002353        4.77402653545145       -0.49760025847316
C            6.64629879877195        5.37506548867967       -0.24166370269341
C            7.09994856960134        6.34857987707995       -1.12181033594478
C            6.34981470125228        6.70818801439580       -2.23145402574288
C            5.12967121862783        6.10543923214241       -2.49175586446538
C            4.67097613899661        5.13265082638953       -1.61868730186962
C            3.45906607798721        4.33140224461474       -1.62549707698098
C            2.39215086844806        4.28581148028683       -2.50792033877681
C            1.36518976541442        3.39168027784826       -2.26497472413578
C            1.38318001953697        2.54040794331736       -1.15938268253701
C            0.29191039047372        1.57841306887867       -0.94814704524287
C           -1.03007125763781        1.93881542811238       -1.18725161360675
C           -2.06393329254383        1.02675845807325       -1.00302248866938
C           -3.45866061447917        1.41045704881971       -1.26332108648221
C           -3.77969115895104        2.20517001652976       -2.36442762423834
C           -5.08579471784911        2.56701884109441       -2.64084576577703
C           -6.09281182470336        2.12632780003437       -1.79769787245857
C           -5.77528965391254        1.33088451045718       -0.68705354059275
C           -4.47725076500995        0.97113320500686       -0.41412663471202
C           -7.02369745902942        0.96459076757769        0.07839009794563
C           -6.99896089892018        1.39946807098646        1.52351195018642
C           -6.84381532475775        2.67064809830517        2.03079886430597
C           -6.85850303800223        2.83815197457212        3.40910747526254
C           -7.02572498708438        1.75207726429890        4.25506451699320
C           -7.18088250263380        0.47188620356209        3.74786563535827
C           -7.16675005308436        0.29696444627582        2.37394895196870
C           -7.30251567536340       -0.89883429003318        1.55709814614656
C           -7.48029242656104       -2.22801754999569        1.90394555670995
C           -7.57456412730249       -3.17063834512617        0.89251862682419
C           -7.49343221582602       -2.79616010638072       -0.44033414090379
C           -7.31600293793448       -1.46562371273182       -0.79570989878513
C           -7.22238412093683       -0.52626888347977        0.20746134231699
C           -8.09580201106936        1.64952298806083       -0.73434561858312
C           -9.45517097921992        1.66642935081958       -0.51401037244620
C          -10.25935916414381        2.37149346953140       -1.39972278960437
C           -9.70737891327839        3.04291192481671       -2.48035430031861
C           -8.34025014278102        3.02761192533400       -2.70515530106792
C           -7.53157272277638        2.32620023239964       -1.82600409245160
C           -1.76073990649284       -0.26062141790103       -0.57194894931548
C           -0.44620583881082       -0.64084467103760       -0.32284746487439
C           -0.13348459055085       -1.99968852443301        0.14242329572490
C           -0.95647637139528       -2.62943284562170        1.07720095295790
C           -0.67458554970869       -3.89730647967887        1.55267686449913
C            0.45315471721325       -4.55036977278928        1.08292053956723
C            1.27961847224923       -3.92546589445088        0.13727372129185
C            0.99916185458700       -2.66489461508098       -0.33363001743863
C            2.44264478284957       -4.81670729401245       -0.22272443378477
C            3.78984688805389       -4.18257021952006        0.02457850338052
C            4.28378920123548       -3.65511028574594        1.19728914951615
C            5.56898071660893       -3.13015576379118        1.19606886855970
C            6.33818124023380       -3.13937999170690        0.04253479798744
C            5.84143783267976       -3.66116527378224       -1.14085976248255
C            4.55866506123377       -4.18335182277247       -1.14820261766541
C            3.77392606929156       -4.78752426268440       -2.21332428836315
C            4.06928103356403       -5.02270970066006       -3.54593046028051
C            3.10839518310786       -5.62533836075930       -4.34197839176173
C            1.87523183638901       -5.98631866878939       -3.82034021933554
C            1.57237597119173       -5.75489133719132       -2.48514986061986
C            2.52568950370049       -5.15643488911091       -1.69125566345912
C            2.18387544218007       -6.02672441039642        0.64364670295891
C            2.92947840144353       -7.18021130378669        0.74477090033216
C            2.49501622241950       -8.17375342171181        1.61214305286230
C            1.33763193518905       -8.00914273474584        2.35826686151616
C            0.58518308294443       -6.85000051046648        2.25861244812350
C            1.01263477053618       -5.85410194184944        1.39577222518940
C            0.57235854926458        0.28685988907819       -0.51474396121189
C            2.45750602216756        2.59506626424995       -0.26805403213613
C            3.47771990261173        3.48466515167699       -0.50726391868828
H            4.17638586393466        4.70862417659789        5.50976058772193
H            3.10039188942481        6.25117135360698        3.93657015394621
H            3.28233367213018        5.88890412249827        1.49407485631030
H            5.45669951372055        2.76283779296570        4.68852845805776
H            6.66962547750351        0.90050006273172        3.30514478671833
H            7.62150148427394       -0.58568191417935        1.57949069461985
H            7.23332418073278       -0.14535656470789       -0.80363093965824
H            5.91076416182626        1.81920647378700       -1.51993669993662
H            7.22972505943500        5.09490374501112        0.62349418314474
H            8.04851982312681        6.83194568729462       -0.93969541990663
H            6.72316112601524        7.46883430726387       -2.90174515018783
H            4.54920897159750        6.38858211247351       -3.35739482593851
H            2.36395858166510        4.92983128754586       -3.37449589908234
H            0.54021164853415        3.33049820095710       -2.95982804780059
H           -1.26057243607413        2.95207302709951       -1.48155439215334
H           -2.98932995444902        2.52438201827988       -3.02814000976832
H           -5.31429934414656        3.17696363017342       -3.50239063672202
H           -4.24498210211363        0.37235689403538        0.45462680086032
H           -6.71446456850226        3.51646535431973        1.37112665284432
H           -6.73880260413145        3.82671807295628        3.82750236430791
H           -7.03511373564602        1.90730694795162        5.32422674810912
H           -7.31097076562530       -0.37074541968350        4.41083371979792
H           -7.54378812493092       -2.52472065600800        2.94049690981858
H           -7.71294503878911       -4.21208968305580        1.14466671336340
H           -7.56881666569227       -3.54869055220921       -1.21151833880731
H           -7.25223728809827       -1.17304045032073       -1.83385505841855
H           -9.88472556488589        1.14343634970478        0.32819946456834
H          -11.32796771898778        2.39745410898430       -1.24486204137000
H          -10.35328272180920        3.58511724082217       -3.15569493957137
H           -7.91477123079087        3.55185441441862       -3.54810374259150
H           -2.55423494318311       -0.98608065046310       -0.46850953800916
H           -1.82061907029764       -2.10242988994838        1.45494743751861
H           -1.32006879103863       -4.36403142863503        2.28202269570028
H            1.63606914784840       -2.20161273461185       -1.07321416556531
H            3.68493515957007       -3.65231201014470        2.09660220037862
H            5.97332704880741       -2.71179504474510        2.10580025797563
H            7.34005193844819       -2.73654282584610        0.06708354512092
H            6.44316454977181       -3.66254956317226       -2.03782378873211
H            5.02819345443691       -4.74341238526492       -3.95692383723310
H            3.32190713089131       -5.81714168346369       -5.38357474056273
H            1.14162191079755       -6.45425340097217       -4.46027087238587
H            0.61239250007327       -6.03724409534580       -2.07769315746341
H            3.83077042542585       -7.30799614161409        0.16277877472846
H            3.06538922391107       -9.08607824211396        1.70660187167646
H            1.01938304288019       -8.79635164515942        3.02632713639340
H           -0.31544536574618       -6.72601050477552        2.84162026780906
H            1.59643645583836        0.00043534203298       -0.32518942521046
H            2.47780202971783        1.95794433062784        0.60428270239941
