  129
       -198.02657061
 C          4.5039222730        4.7075168581        4.4233031809
 C          3.8854727718        5.5641594617        3.5251471363
 C          3.9214515840        5.3105774905        2.1604951922
 C          4.5835892753        4.1858770622        1.7204514164
 C          5.2073989667        3.3135441836        2.6239256933
 C          5.1693614755        3.5744270273        3.9836188740
 C          5.8138928629        2.2269029776        1.8712313311
 C          6.5291968918        1.1156667662        2.2855796192
 C          6.9840369729        0.2247832188        1.3270760606
 C          6.7268645907        0.4330205791       -0.0193519852
 C          6.0155050779        1.5475811619       -0.4425867123
 C          5.5670933224        2.4389739669        0.5071283890
 C          4.7840329724        3.7121204005        0.3006613743
 C          5.5044326472        4.7372677965       -0.5435678546
 C          6.7465298362        5.2948310124       -0.3360129178
 C          7.2080016908        6.2370768132       -1.2456366384
 C          6.4359412516        6.6099399732       -2.3356892865
 C          5.1857109046        6.0513167065       -2.5469240029
 C          4.7193373022        5.1094248936       -1.6445257349
 C          3.4809973423        4.3509959443       -1.6032746861
 C          2.3909233078        4.3260781084       -2.4576371720
 C          1.3499330358        3.4581174775       -2.1825177378
 C          1.3761935881        2.6130923292       -1.0721667128
 C          0.2794549951        1.6597338567       -0.8492519545
 C         -1.0424879206        2.0278360960       -1.0769383083
 C         -2.0785450345        1.1139799034       -0.9121874772
 C         -3.4733432943        1.4994693976       -1.1690319389
 C         -3.7914642726        2.3551298615       -2.2248812037
 C         -5.0981380207        2.7192339683       -2.4960593303
 C         -6.1115949557        2.2140607211       -1.6979348998
 C         -5.7982145638        1.3525433061       -0.6366726165
 C         -4.4992403734        0.9966476030       -0.3643903450
 C         -7.0526238940        0.9111929524        0.0779139271
 C         -7.0510067686        1.2169469681        1.5552995109
 C         -6.9247386304        2.4407757374        2.1746938498
 C         -6.9528059378        2.4849731049        3.5622633263
 C         -7.1039984924        1.3250956778        4.3072228399
 C         -7.2294861272        0.0921437507        3.6872426959
 C         -7.2018931991        0.0401694992        2.3034348910
 C         -7.3089592454       -1.0809893705        1.3830003831
 C         -7.4632836841       -2.4388589482        1.6089902749
 C         -7.5366984143       -3.2890076826        0.5170747410
 C         -7.4583453359       -2.7956855819       -0.7766787906
 C         -7.3022236874       -1.4359911080       -1.0110327756
 C         -7.2284987351       -0.5886526102        0.0724774417
 C         -8.1218218417        1.6429759168       -0.6961238831
 C         -9.4839169024        1.6288207082       -0.4931396246
 C        -10.2859465782        2.3829235808       -1.3395010896
 C         -9.7290981274        3.1318897699       -2.3652648701
 C         -8.3591983094        3.1477023977       -2.5728366279
 C         -7.5524655299        2.3980905522       -1.7324763524
 C         -1.7749008458       -0.1822982068       -0.5076192726
 C         -0.4618946181       -0.5671327528       -0.2581692930
 C         -0.1555502079       -1.9348152382        0.1852251113
 C         -0.9872962019       -2.5769462914        1.1037979441
 C         -0.7174527698       -3.8563428127        1.5544826020
 C          0.4068226389       -4.5087363887        1.0757377885
 C          1.2436830287       -3.8706055441        0.1480157393
 C          0.9753996164       -2.5980599965       -0.2976171436
 C          2.3988063296       -4.7654286963       -0.2273254153
 C          3.7544702474       -4.1636057500        0.0532307962
 C          4.2444102276       -3.6801235779        1.2463608802
 C          5.5433947013       -3.1912441953        1.2776470481
 C          6.3295496144       -3.1921051144        0.1355791353
 C          5.8365261065       -3.6681613226       -1.0684645444
 C          4.5407209246       -4.1556042562       -1.1078439854
 C          3.7584265003       -4.7166503544       -2.1980484302
 C          4.0694512471       -4.9303331418       -3.5306681224
 C          3.1082896431       -5.4947009018       -4.3538220800
 C          1.8592758790       -5.8384879974       -3.8589254471
 C          1.5407282667       -5.6287526332       -2.5238314051
 C          2.4946023216       -5.0691802241       -1.7027243991
 C          2.1202010085       -5.9950984818        0.6051727533
 C          2.8508924507       -7.1601555381        0.6781963575
 C          2.4026828416       -8.1690576963        1.5202305787
 C          1.2474017422       -8.0072736608        2.2701744214
 C          0.5096031431       -6.8366866459        2.1980283593
 C          0.9501049596       -5.8258969688        1.3594732104
 C          0.5582916516        0.3618557143       -0.4337566503
 C          2.4696922202        2.6542559489       -0.2036043369
 C          3.5044182075        3.5180106184       -0.4746800388
 H          4.4652968866        4.9272943642        5.4803311755
 H          3.3710621234        6.4403867477        3.8913669470
 H          3.4434568704        5.9797537633        1.4597838761
 H          5.6499553786        2.9107177134        4.6871677997
 H          6.7277891623        0.9462180742        3.3336047249
 H          7.5468162042       -0.6444892649        1.6335243517
 H          7.0822040160       -0.2799551817       -0.7483630316
 H          5.8169323940        1.7125285559       -1.4918031078
 H          7.3468783032        5.0051266959        0.5142985299
 H          8.1801041939        6.6854939209       -1.1021422066
 H          6.8157405251        7.3460515227       -3.0293123992
 H          4.5883255802        6.3441403073       -3.3976981134
 H          2.3576534418        4.9622840440       -3.3297666428
 H          0.5083133087        3.4090333321       -2.8580642240
 H         -1.2694467819        3.0473714457       -1.3514239699
 H         -2.9982834685        2.7235010044       -2.8589262678
 H         -5.3219482289        3.3800239621       -3.3205758424
 H         -4.2737287572        0.3497630946        0.4708512763
 H         -6.8071121446        3.3440820734        1.5937837864
 H         -6.8559787217        3.4346186401        4.0676541737
 H         -7.1242269256        1.3846382674        5.3858256887
 H         -7.3469494226       -0.8084699048        4.2716667476
 H         -7.5254244091       -2.8280022462        2.6145586701
 H         -7.6567143350       -4.3511338327        0.6746464837
 H         -7.5186136156       -3.4774204431       -1.6122985509
 H         -7.2398849227       -1.0508405861       -2.0185759758
 H         -9.9170575335        1.0443692013        0.3057013775
 H        -11.3566357379        2.3859308084       -1.1971638568
 H        -10.3734576410        3.7105984791       -3.0111536953
 H         -7.9303071012        3.7321187270       -3.3734187634
 H         -2.5666058633       -0.9121845929       -0.4250123043
 H         -1.8493658339       -2.0512834737        1.4881686258
 H         -1.3702575617       -4.3331296396        2.2707309955
 H          1.6197209349       -2.1241116134       -1.0238634537
 H          3.6325279407       -3.6848544359        2.1368288875
 H          5.9454604961       -2.8091924501        2.2043527243
 H          7.3423831367       -2.8199121882        0.1856017457
 H          6.4516558504       -3.6630691492       -1.9563053982
 H          5.0408470089       -4.6646673945       -3.9207816883
 H          3.3342491310       -5.6702342502       -5.3956307483
 H          1.1257772938       -6.2765685060       -4.5197390755
 H          0.5685364557       -5.8981521763       -2.1371738031
 H          3.7508595318       -7.2850316171        0.0935477641
 H          2.9609550975       -9.0908370864        1.5922705595
 H          0.9191556006       -8.8059265555        2.9194826366
 H         -0.3896994038       -6.7154232703        2.7835541247
 H          1.5819502176        0.0711211193       -0.2485516060
 H          2.4962633215        2.0234892271        0.6732225200
