  90
       -140.37713521
 C         -6.4848511800       -4.6890632075       -0.0271970492
 C         -5.8309548559       -3.7292748341       -0.7822421248
 C         -6.2710707087       -2.4188929235       -0.7787613621
 C         -7.3727941599       -2.0539912640       -0.0065404512
 C         -7.8773124312       -0.6888103819        0.0243948754
 N         -9.1467263758       -0.3954189018        0.0899555218
 C         -9.2277893977        0.9685928525        0.0437632176
 C        -10.3365010882        1.8065449876        0.0872947618
 C        -10.1131445086        3.1662561568        0.0383361800
 C         -8.8231663607        3.6948931640       -0.0415930483
 C         -7.7080238440        2.8819061630       -0.0866977617
 C         -7.9256427913        1.5139483868       -0.0579268186
 N         -7.0730087121        0.4323918648       -0.0646499013
 C         -5.6743257383        0.4825869522       -0.0425619111
 C         -4.9630915180       -0.2293318527        0.9231290566
 C         -3.5873684452       -0.2049283995        0.9240100182
 C         -2.8747186388        0.5488877460       -0.0186461190
 C         -1.4198196088        0.5574706546       -0.0232951035
 C         -0.7117442531        1.7981344559        0.0096268981
 C         -1.3740790640        3.0221243163        0.1423814982
 C         -0.6875749290        4.2320346837        0.0809627389
 C          0.6760367292        4.2363128700       -0.1210873521
 C          1.3690724499        3.0304365391       -0.1882778037
 C          0.7132355980        1.8022692950       -0.0623476783
 C          1.4287204585        0.5657195418       -0.0348434224
 C          2.8834416463        0.5655394806       -0.0298978688
 C          3.6074251827       -0.1841329379       -0.9673892083
 C          4.9829229130       -0.2110510462       -0.9481225247
 C          5.6822057413        0.4954816381        0.0301599942
 N          7.0796387957        0.4311583824        0.0786334860
 C          7.8711577745       -0.7009325804        0.0174683935
 C          7.3459300503       -2.0585165413        0.0427756889
 C          8.0160254887       -3.0475693442       -0.6755076788
 C          7.5491412386       -4.3476681284       -0.6729926647
 C          6.4137112258       -4.6781342681        0.0492368298
 C          5.7589685038       -3.7056646716        0.7869649813
 C          6.2213814184       -2.4031645925        0.7910353385
 N          9.1454019114       -0.4243451958       -0.0183930263
 C          9.2428655925        0.9388761635        0.0209700193
 C         10.3627179251        1.7627043422       -0.0001071999
 C         10.1552422899        3.1253950555        0.0336611662
 C          8.8705036426        3.6708548290        0.0776298586
 C          7.7444708317        2.8721927955        0.1006582649
 C          7.9457433692        1.5015268186        0.0863338286
 C          4.9797525327        1.2599009076        0.9592615607
 C          3.6028756162        1.2995498880        0.9216732587
 C          0.7209595396       -0.6761487044       -0.0037008163
 C          1.3840066185       -1.9014506226        0.1159779774
 C          0.6965892771       -3.1106655817        0.0521058694
 C         -0.6686656991       -3.1134938134       -0.1377801694
 C         -1.3621348470       -1.9072942368       -0.1918950997
 C         -0.7049048003       -0.6797130369       -0.0640509339
 C         -3.6052754284        1.2824112152       -0.9619069243
 C         -4.9825333621        1.2440666442       -0.9821139192
 C         -8.0427067092       -3.0300664699        0.7297195368
 C         -7.5974763630       -4.3378325599        0.7204688838
 H         -6.1341146877       -5.7106188621       -0.0303280720
 H         -4.9757478078       -4.0034262931       -1.3828404526
 H         -5.7701655756       -1.6853402258       -1.3936380505
 H        -11.3295233178        1.3937649725        0.1618722066
 H        -10.9527656563        3.8448959662        0.0693781695
 H         -8.6953880982        4.7669926842       -0.0663266202
 H         -6.7118495265        3.2960104267       -0.1355930028
 H         -5.5005848999       -0.7974871896        1.6678045835
 H         -3.0435129439       -0.7416299690        1.6870907717
 H         -2.4411578041        3.0340677428        0.3026950548
 H         -1.2318313997        5.1594494858        0.1774168122
 H          1.2153035463        5.1672136222       -0.2120288355
 H          2.4359316957        3.0487392785       -0.3494170894
 H          3.0727403049       -0.7173794476       -1.7393389546
 H          5.5295706866       -0.7790911326       -1.6862114390
 H          8.9004216199       -2.7736342253       -1.2291899127
 H          8.0707212241       -5.1070830241       -1.2365756384
 H          6.0453685925       -5.6933517671        0.0458431198
 H          4.8860576007       -3.9638682294        1.3688859299
 H          5.7194175190       -1.6602641576        1.3935745164
 H         11.3521117529        1.3373122418       -0.0470639548
 H         11.0039022901        3.7932328927        0.0195980997
 H          8.7558751700        4.7446520141        0.0923115650
 H          6.7524556177        3.2984525756        0.1225758050
 H          5.5208742636        1.7953799278        1.7254640259
 H          3.0640082841        1.8626364366        1.6694590684
 H          2.4525766402       -1.9173375392        0.2666490613
 H          1.2422324565       -4.0384657673        0.1365471555
 H         -1.2093910301       -4.0434316720       -0.2296493193
 H         -2.4309392889       -1.9267104412       -0.3406209466
 H         -3.0751903763        1.8462769075       -1.7153780326
 H         -5.5325909018        1.7809295627       -1.7409088333
 H         -8.9092283536       -2.7396998025        1.3030081728
 H         -8.1187267944       -5.0872167335        1.2977666040
