90
 energy: -140.445296007447 gnorm: 0.000052687209 xtb: 6.7.1 (edcfbbe)
C           -6.36178558746159       -4.57760463933465        0.99486663326243
C           -5.70209487244718       -3.78727414454774        0.06825808473696
C           -6.17484090036403       -2.52419846973571       -0.23442027063049
C           -7.31517776458182       -2.03411987471978        0.39997420005530
C           -7.85121440648670       -0.71142081309672        0.11197354029252
N           -9.12781668838272       -0.44608932275569        0.07024602717035
C           -9.23314475739258        0.87233739638018       -0.27634977752474
C          -10.35811041538049        1.66950017659813       -0.45772572192838
C          -10.15797676602507        2.99053195317779       -0.79690654369368
C           -8.87585863335356        3.52349743216774       -0.94725596068326
C           -7.74502754802809        2.75104350854129       -0.77320952103112
C           -7.93895800532527        1.41804520109330       -0.44978188161433
N           -7.06690996192475        0.38453078076150       -0.19267813477238
C           -5.66818609357747        0.47306797151342       -0.13655138784478
C           -4.99034923136876        0.04174782245903        1.00015002645810
C           -3.61187540322421        0.08826933620092        1.03735774744181
C           -2.88747651802766        0.57765234240512       -0.04683830010648
C           -1.41101173479485        0.58733695378848       -0.01845976572227
C           -0.71705876052135        1.80528840995236       -0.00151354671118
C           -1.39502110981845        3.05229951890882        0.03563583735802
C           -0.71088606413643        4.22834902962871        0.02418702299463
C            0.69714864898583        4.23091529730230       -0.03167394306077
C            1.38566976067586        3.05740576948960       -0.04109305567729
C            0.71235368564540        1.80794512403780       -0.00178210995269
C            1.41081862387743        0.59262548460473        0.01762962715729
C            2.88735979529964        0.58832821010151        0.04568524550374
C            3.61329725840609        0.10057938064329       -1.03820993699342
C            4.99192472153375        0.05846590680625       -1.00100757403065
C            5.66847195924466        0.49254706104933        0.13542860661432
N            7.06737339424913        0.40702464735365        0.19207537981148
C            7.85334125993248       -0.68814516857435       -0.11113986454511
C            7.31897725948366       -2.01138519976716       -0.39994380158498
C            7.99295777244779       -2.81978561430600       -1.31382774036825
C            7.51698178604556       -4.08215215408282       -1.61086338868556
C            6.36832081320612       -4.55527394156794       -0.99702250398086
C            5.70897004446124       -3.76728046933567       -0.06817732768189
C            6.18033232193956       -2.50393350439121        0.23553552203685
N            9.12955540006466       -0.42147109439509       -0.06779461165745
C            9.23297053771289        0.89717092966959        0.27857825924501
C           10.35695850679972        1.69533712996258        0.46144884684902
C           10.15515508654750        3.01626428436223        0.80002199237611
C            8.87230568395323        3.54805395307451        0.94824880024096
C            7.74240578342538        2.77452462521501        0.77279005110173
C            7.93795834560397        1.44159273340359        0.45003060900001
C            4.95423845808469        1.00273184669929        1.21408915552959
C            3.57440022264825        1.05126661828208        1.16399758032684
C            0.71678848545236       -0.62654994738623        0.01868236585756
C            1.39373057169049       -1.87395709470573        0.07189427123337
C            0.70980548398574       -3.04992716853476        0.04717590517639
C           -0.69655136732256       -3.05266898826979       -0.03711862864267
C           -1.38478556396298       -1.87931610475572       -0.06598829263917
C           -0.71247624780947       -0.62925910972239       -0.01633944681131
C           -3.57590517466471        1.03736944072337       -1.16563339788031
C           -4.95557286733018        0.98450441058062       -1.21568784967554
C           -7.98936350064382       -2.84484351323953        1.31169497937162
C           -7.51209293208298       -4.10698990665741        1.60756941282618
H           -5.98578145797832       -5.56220012951187        1.23069596145753
H           -4.81674313607387       -4.15861242563682       -0.42725866125287
H           -5.66814866275841       -1.92903506493586       -0.98001926373387
H          -11.34566032665151        1.25659994927130       -0.33017849759721
H          -11.01054393903067        3.63663291354029       -0.94577992234730
H           -8.76764616676953        4.56674080503625       -1.20485531020284
H           -6.75484558302143        3.16906053493151       -0.87968348135608
H           -5.54943025905953       -0.33840505530750        1.84214034670677
H           -3.08485051787557       -0.25251339271159        1.91633688407089
H           -2.47399831051929        3.05153046105968        0.07823775281531
H           -1.24096961001860        5.16886559948554        0.05352312457509
H            1.22370654367011        5.17335764495629       -0.06252520823861
H            2.46465330012544        3.06057272099092       -0.08345979322241
H            3.08737275606635       -0.24258106655465       -1.91692399462256
H            5.55210309676102       -0.32047939942462       -1.84281166208649
H            8.88776429959596       -2.43718516547389       -1.77933911501973
H            8.04196431909155       -4.70047246724800       -2.32393400498586
H            5.99332552322416       -5.54003346237071       -1.23375091049632
H            4.82502052538477       -4.14070620197097        0.42826490373964
H            5.67397702417939       -1.91042548290091        0.98269631769500
H           11.34502052502332        1.28315243560077        0.33553697659520
H           11.00691353853248        3.66316407550206        0.95006684634545
H            8.76276212465757        4.59127278180123        1.20537868187000
H            6.75173188779727        3.19175977289307        0.87771177147018
H            5.48278381320306        1.33582210538544        2.09503920068250
H            3.01792556327845        1.43139371493052        2.00833044782538
H            2.47182648085289       -1.87569090112478        0.13375408463702
H            1.23932753037746       -3.99040540453580        0.08740991369373
H           -1.22263665261797       -3.99520872759592       -0.07414719148143
H           -2.46284310248654       -1.88524681867181       -0.12821939539802
H           -3.02059599106991        1.41868470045195       -2.01019859141142
H           -5.48519192083725        1.31530673072484       -2.09685717669809
H           -8.88540155327838       -2.46418586447398        1.77641938366657
H           -8.03733612397624       -4.72713336278574        2.31886588663083
