90
 energy: -140.382278571135 gnorm: 0.000039834586 xtb: 6.7.1 (edcfbbe)
C           -6.41584600667417       -4.66738446945652        0.05436580030686
C           -5.76521641074008       -3.71134760704327       -0.70802328009340
C           -6.22600987944119       -2.40851697133968       -0.73577107091082
C           -7.34479554998740       -2.04683513053040        0.01302097576115
C           -7.86784887280607       -0.68811789055661        0.01386237552266
N           -9.14120538256817       -0.40802447142213        0.05536346102306
C           -9.23595575926958        0.95432318345397       -0.01223471320042
C          -10.35357491533482        1.78151713922947        0.00029641202040
C          -10.14299619930566        3.14245418057972       -0.06482302996670
C           -8.85735459261808        3.68354391899647       -0.13162186914698
C           -7.73357643980784        2.88170171458746       -0.14653221142955
C           -7.93830971368760        1.51232809041507       -0.10040097647688
N           -7.07479372956585        0.44027475772654       -0.07820811565143
C           -5.67614248171960        0.50297210021314       -0.03991279197917
C           -4.97392141809391       -0.17500185294246        0.95506720251519
C           -3.59735536232408       -0.14870030089868        0.96665415096786
C           -2.88076689989664        0.57086888182389        0.00328175212120
C           -1.42223604756576        0.57210415651669        0.00206757900420
C           -0.70888329588691        1.81173166480889        0.02762013714182
C           -1.36743910435425        3.03726840093861        0.14751178878008
C           -0.67427206816138        4.24496500447020        0.08627537988374
C            0.68967902439745        4.24238959178309       -0.10301469930878
C            1.37829998920613        3.03206641385258       -0.16406580082661
C            0.71515822970757        1.80904308942201       -0.04409666205867
C            1.42410197955349        0.56678126067913       -0.01842060065976
C            2.88253608310014        0.56094386032407       -0.01511291511741
C            3.60055304307098       -0.16112917510039       -0.97557001134830
C            4.97696547348520       -0.19206681945163       -0.95842137611039
C            5.67752225126733        0.48419541291255        0.03887371932384
N            7.07580306259731        0.41667528348842        0.08247797972621
C            7.86485472484556       -0.71486961999067       -0.00476311338973
C            7.33626803170660       -2.07142173873395       -0.00093232265829
C            7.99986617864644       -3.04973049010423       -0.73960268558349
C            7.52923238530293       -4.34839938982053       -0.75719231560501
C            6.39651495627515       -4.68822104466406       -0.03500087935399
C            5.74808440785809       -3.72675592132580        0.72241487577825
C            6.21421667059346       -2.42576387280809        0.74649290350103
N            9.13935217979129       -0.43964563398012       -0.04378502583946
C            9.23897772318357        0.92252430353819        0.02063021973396
C           10.35962926405015        1.74561649538167        0.00880570207383
C           10.15387113010371        3.10746380891872        0.07030815548029
C            8.87008354753214        3.65343483500432        0.13296394134976
C            7.74334060852091        2.85575147337807        0.14697789732008
C            7.94319328060336        1.48555698332840        0.10425865557484
C            4.97924315914091        1.22181630955135        0.99127448294196
C            3.60150714811955        1.26367332000001        0.95736337634562
C            0.71139709807179       -0.67412530054630        0.01453215125956
C            1.37165736144777       -1.90040148944351        0.12052559437357
C            0.67731748000363       -3.10779691891593        0.06853787989181
C           -0.68984023768597       -3.10488057795119       -0.09542293346389
C           -1.37937778881587       -1.89458432225764       -0.14337057216171
C           -0.71411001614954       -0.67129423086627       -0.03434345881001
C           -3.60111294039661        1.27526123574859       -0.96686958743964
C           -4.97911723811622        1.23755397994394       -0.99557539708044
C           -8.01078413230854       -3.01976149058096        0.75665622565807
C           -7.54552941225052       -4.32030382079593        0.77784986795104
H           -6.04914835555716       -5.68301468736802        0.07566781858889
H           -4.89658731560762       -3.98266204566174       -1.29041600657271
H           -5.72695501967799       -1.67893251340918       -1.35668065135241
H          -11.34362377954079        1.35994322575930        0.06407802373684
H          -10.98979838030530        3.81276665778700       -0.05766268005178
H           -8.74034509354528        4.75645695397065       -0.17086970943368
H           -6.74057944874706        3.30443244579323       -0.18654325277581
H           -5.51749098651558       -0.72249273945970        1.71072089613691
H           -3.05839647959168       -0.66376919774059        1.74793312658051
H           -2.43600385533487        3.05424008599445        0.29731289006550
H           -1.21571345155094        5.17487011628438        0.17395635891041
H            1.23462635948346        5.17022863306114       -0.19083382479411
H            2.44692908964080        3.04502122709073       -0.31383540272130
H            3.06307239743394       -0.67430246169955       -1.75910840932615
H            5.52175274746219       -0.74179055790517       -1.71158461624047
H            8.88225934979384       -2.76869396584377       -1.29291748536405
H            8.04590466212320       -5.09948768463570       -1.33624067776964
H            6.02570666440660       -5.70241437996641       -0.05342368709313
H            4.87705968339734       -3.99235735872890        1.30386764241787
H            5.71676633513776       -1.69189912200339        1.36363106670452
H           11.34828638473170        1.32030858380168       -0.05169170303677
H           11.00314126220242        3.77465232708981        0.06357627461419
H            8.75694339664735        4.72685093002133        0.16970568654686
H            6.75178329733730        3.28212731389223        0.18391309673374
H            5.52277131756490        1.73550548433235        1.77055581383333
H            3.06382889895729        1.80916195606934        1.71897144196737
H            2.44306349841269       -1.92062435634662        0.24908867279187
H            1.22093592811043       -4.03760913000399        0.14324791532136
H           -1.23708399069314       -4.03232100542648       -0.17306481048032
H           -2.45096326708117       -1.90997937755501       -0.27117793025631
H           -3.06463045479001        1.81861255464367       -1.73084548735582
H           -5.52394911673140        1.75226092537960       -1.77326809858400
H           -8.89075272282436       -2.73305503218013        1.31092671221891
H           -8.06408038693623       -5.06717100899414        1.36066939338074
