90
 energy: -140.444211838025 gnorm: 0.000045138586 xtb: 6.7.1 (edcfbbe)
C           -6.63089517593214       -4.62052744464929       -0.47262785284662
C           -5.92954593929548       -3.75989491374967        0.35546664787582
C           -6.33066530797455       -2.44461371098312        0.49572641005804
C           -7.44019780566648       -1.97382485487149       -0.20416086211298
C           -7.90743874411670       -0.60073576305165       -0.08273794616150
N           -9.16931440958008       -0.26927882459694       -0.10638150265891
C           -9.21338253036972        1.08343531556285        0.08548806399173
C          -10.29888042216829        1.95085385914488        0.14388241778339
C          -10.03730888960256        3.29054997689062        0.33583743326536
C           -8.73256472937306        3.77312112015992        0.46003929050738
C           -7.64016119385396        2.93076595707812        0.40668395216190
C           -7.89662154150644        1.58066797364344        0.23162015517382
N           -7.07399652502339        0.48253330696751        0.11817129566224
C           -5.67117836497642        0.50544083151764        0.08776933798646
C           -4.96182317427496        1.09960535615948        1.12590329787265
C           -3.58038835749692        1.10678006920885        1.09853563732085
C           -2.88975557552908        0.52779359096578        0.03914427314742
C           -1.40987655249878        0.51961031026059        0.02816536794337
C           -0.71228624297063        1.44475468735015       -0.75825673328389
C           -1.38749988027247        2.40777811047739       -1.55337320653674
C           -0.69770766255632        3.30957556176079       -2.30310761953712
C            0.71196821538251        3.30937559201852       -2.29837250738907
C            1.39703689035905        2.40667611739202       -1.54527962688535
C            0.71707575480764        1.44283583627088       -0.75518017833914
C            1.40874473160424        0.51470094630745        0.03359690300506
C            2.88814153562900        0.51854840121294        0.05024474568874
C            3.60946167795394       -0.01756708537759       -1.01229094531087
C            4.98968703767523       -0.02977981890230       -0.99011632743864
C            5.66988131321824        0.49364202989235        0.10544580463051
N            7.07264410511900        0.47230342332051        0.13788761853926
C            7.90977884635837       -0.59919188294574       -0.10617073387805
C            7.44706787172531       -1.96719436810776       -0.28746764821776
C            8.16807832235052       -2.80751125446690       -1.13466878571407
C            7.76684571341208       -4.11530303545575       -1.32578000966129
C            6.64670825740742       -4.60234677224327       -0.67129075578438
C            5.94037043603175       -3.78001478278914        0.19078558194515
C            6.33698961655312       -2.47072806414265        0.38830776936379
N            9.17076442025100       -0.26355843309157       -0.11191841970065
C            9.21042743624781        1.07996084863907        0.13702067390724
C           10.29326189077136        1.94712649350010        0.23520640976494
C           10.02727777796286        3.27688334475313        0.48229515069097
C            8.72077601563512        3.75027646140273        0.62230320358494
C            7.63097396790861        2.90788508809845        0.53035048180694
C            7.89183900245773        1.56696676933063        0.29993385575928
C            4.95759144550126        1.04421899538557        1.16542613953308
C            3.57630301926444        1.05263151264365        1.13473294609612
C            0.71072535584869       -0.41787421714454        0.81201985774982
C            1.38418556480169       -1.39034504771836        1.59725790616829
C            0.69344442038304       -2.29669637155284        2.34064096646691
C           -0.71620224014377       -2.29221415555040        2.33981629388809
C           -1.39981600080855       -1.38214411229810        1.59450249880680
C           -0.71847891006650       -0.41491643913778        0.80958259869776
C           -3.60792192181195       -0.05079574876472       -1.00285518486229
C           -4.98821757660261       -0.06172434644351       -0.98403171843983
C           -8.15617511703565       -2.85182669542823       -1.01668746319292
C           -7.75053664164834       -4.16537183326867       -1.15049268928076
H           -6.31081549577129       -5.64626765264687       -0.58119668176536
H           -5.06702697235035       -4.11607490745825        0.89976945702801
H           -5.79257225800887       -1.79093247536490        1.16635437406157
H          -11.30363159138958        1.57529819060091        0.03687675072325
H          -10.85791021826988        3.99094481974948        0.38640090919574
H           -8.57551410020676        4.83245493388897        0.59993836969888
H           -6.63194458952375        3.30859599916078        0.49263125281175
H           -5.49641800908372        1.53475183331926        1.95734096771536
H           -3.02678220543205        1.55937286236659        1.90821277801224
H           -2.46764604899160        2.41210924073427       -1.54907005199161
H           -1.22395334331261        4.03663664102723       -2.90381826290375
H            1.24233122591061        4.03673743103190       -2.89509845240735
H            2.47708311609476        2.41166536647594       -1.53464143231565
H            3.07971774734898       -0.42830275347560       -1.85910337666637
H            5.54828805972585       -0.44870197169015       -1.81387903977514
H            9.04014372182506       -2.41282925758912       -1.63205676718517
H            8.32805643536746       -4.75854861879120       -1.98735423374478
H            6.33007171308508       -5.62343274522348       -0.82460930391731
H            5.07742453906132       -4.16167829403373        0.71682045338050
H            5.79483726762619       -1.84785762295251        1.08449741827456
H           11.29940770025262        1.57914295839330        0.11573242180557
H           10.84570556853025        3.97678728608777        0.56479294955446
H            8.56021905438617        4.80242357541351        0.80569685512594
H            6.62142475166762        3.27909562442068        0.62860924911364
H            5.48992518497253        1.44498215318789        2.01539367936336
H            3.02067040730465        1.47221848738467        1.96065878556330
H            2.46419374568132       -1.40130231343795        1.58757635716656
H            1.21878272200179       -3.03134959467178        2.93298741809701
H           -1.24696993048510       -3.02303098853114        2.93206072248423
H           -2.47990135133482       -1.38547030717685        1.58272034688351
H           -3.07580611990972       -0.49544310916437       -1.83081741062910
H           -5.54475360049535       -0.51376424199288       -1.79151823366921
H           -9.02792029651399       -2.48147345941023       -1.53298828489377
H           -8.30793403921179       -4.83807400019665       -1.78545925378500
