  73
       -119.31745704
 O          4.9635114132        1.3093385798       -1.1072655432
 C          5.2084750371        0.3298579188       -0.3457517000
 C          6.5503072553       -0.1219741145       -0.0566746000
 C          7.6668125436        0.5120364625       -0.6272308462
 C          8.9448950805        0.0741829490       -0.3429342694
 C          9.1502184407       -1.0035375802        0.5045709853
 C          8.0592566632       -1.6496977583        1.0762868033
 C          6.7725312846       -1.2181173522        0.8012495264
 O          5.7520240116       -1.9041128104        1.3931564997
 C          4.4752584315       -1.5150802510        1.1447798898
 C          3.4624237224       -2.2345047943        1.7572997868
 C          2.1296779523       -1.8956516435        1.5484026561
 C          1.8011877588       -0.8171203792        0.7270664932
 C          0.4024017705       -0.4544736137        0.4761535408
 C         -0.5686421891       -1.4402535230        0.3228923056
 C         -1.8875018617       -1.0972450382        0.0453778400
 N         -2.8369651811       -2.1064380263       -0.1523153372
 C         -2.6793948121       -3.1959975783       -0.9870936804
 C         -1.6208979352       -3.5239778827       -1.8233090750
 C         -1.7293068453       -4.6773565928       -2.5776784961
 C         -2.8637442640       -5.4824857972       -2.5160681781
 C         -3.9329442697       -5.1452731027       -1.7068124336
 C         -3.8463877820       -3.9930923743       -0.9393799616
 C         -4.7470938270       -3.3441482010       -0.0247396903
 C         -6.0182310052       -3.6480274770        0.4395680913
 C         -6.6071369236       -2.8004153571        1.3597444214
 C         -5.9359296989       -1.6744642195        1.8292803588
 C         -4.6685679476       -1.3532817987        1.3810746011
 C         -4.0835798271       -2.1829536073        0.4352209940
 C         -2.2548854597        0.2393055938       -0.0677265038
 C         -1.2905615519        1.2284150964        0.1014827305
 N         -1.6391256868        2.5762693256       -0.0339117632
 C         -2.7115634544        3.2074166498        0.5626067108
 C         -3.6388351245        2.7124842218        1.4684037749
 C         -4.6111974274        3.5755604932        1.9377636654
 C         -4.6584552150        4.9054712726        1.5289499855
 C         -3.7188903026        5.4137511961        0.6503702620
 C         -2.7352924297        4.5649571767        0.1659781027
 C         -1.6151183292        4.7510907257       -0.7175401060
 C         -1.1292815270        5.8412510617       -1.4238286178
 C         -0.0099186027        5.6688535867       -2.2178276343
 C          0.6090549239        4.4261598245       -2.3245885152
 C          0.1408089366        3.3252131659       -1.6320045158
 C         -0.9647335578        3.4990544339       -0.8105735999
 C          0.0283610884        0.8822925705        0.3723605982
 C          2.8154907783       -0.0875845901        0.1184435708
 C          4.1668140919       -0.4246200337        0.3032966892
 H          7.4909141545        1.3482952220       -1.2843471051
 H          9.7889073943        0.5829346178       -0.7845434663
 H         10.1487439766       -1.3457165472        0.7253138050
 H          8.1898740716       -2.4935319781        1.7350907749
 H          3.7307912116       -3.0556022444        2.4028188905
 H          1.3564471526       -2.4527243620        2.0528951606
 H         -0.2986179634       -2.4801896398        0.4122063971
 H         -0.7455298935       -2.8967224134       -1.8941877991
 H         -0.9171031639       -4.9560098027       -3.2320154248
 H         -2.9095970397       -6.3763064244       -3.1193695985
 H         -4.8191522664       -5.7602000693       -1.6733334333
 H         -6.5314829231       -4.5310598061        0.0909084349
 H         -7.5973837136       -3.0172278764        1.7304445957
 H         -6.4128888378       -1.0408627058        2.5618136147
 H         -4.1456828416       -0.4932533653        1.7691530518
 H         -3.2673705484        0.5050271014       -0.3281233290
 H         -3.5945848364        1.6910003347        1.8117199611
 H         -5.3456740988        3.2108185050        2.6398584436
 H         -5.4343845968        5.5491807722        1.9145578936
 H         -3.7439562004        6.4499780279        0.3498019226
 H         -1.6192745893        6.8003500299       -1.3557834520
 H          0.3866881803        6.5051595426       -2.7729132804
 H          1.4728361685        4.3164959349       -2.9622800977
 H          0.6170505984        2.3635801564       -1.7389527300
 H          0.7597782601        1.6574074497        0.5328372416
 H          2.5966791077        0.7338301877       -0.5430598194
  73
       -119.31730544
 O          4.8844455448        1.5035477713        1.3705970762
 C          5.1827119861        0.4420486831        0.7511771775
 C          6.5438404677       -0.0167901569        0.5928619746
 C          7.6203812423        0.7057159649        1.1344984002
 C          8.9175906755        0.2608184837        0.9735282105
 C          9.1820579421       -0.9088689935        0.2777796104
 C          8.1313715006       -1.6424312961       -0.2637786558
 C          6.8261881889       -1.2058764172       -0.1096801421
 O          5.8476620971       -1.9789888296       -0.6639950990
 C          4.5553274043       -1.5854388825       -0.5361486144
 C          3.5867931349       -2.3933684312       -1.1090374851
 C          2.2412593839       -2.0535065487       -1.0202969644
 C          1.8536716624       -0.8863974167       -0.3609313936
 C          0.4399551014       -0.5099529284       -0.2654289637
 C         -0.5440130597       -1.4801257134       -0.0944138264
 C         -1.8838989994       -1.1198466165       -0.0074895440
 N         -2.8601611621       -2.1099705766        0.1499166032
 C         -2.9596236381       -3.2601119178       -0.6078078121
 C         -2.2011586898       -3.6697544733       -1.6958971729
 C         -2.5331911236       -4.8686891492       -2.2983892044
 C         -3.5986982181       -5.6403269750       -1.8417991334
 C         -4.3754492438       -5.2230899027       -0.7767466396
 C         -4.0605709311       -4.0233891020       -0.1556579449
 C         -4.6446801737       -3.2898416259        0.9351661489
 C         -5.7197792708       -3.5296999831        1.7780270753
 C         -6.0054172176       -2.6046797182        2.7652036244
 C         -5.2239273056       -1.4635540612        2.9263878192
 C         -4.1474775594       -1.2033954503        2.0989000268
 C         -3.8725758366       -2.1146830793        1.0884736305
 C         -2.2551051286        0.2190242514       -0.0690875726
 C         -1.2746626373        1.1927650067       -0.2333864902
 N         -1.6346493671        2.5425612113       -0.2970774217
 C         -2.6405950018        3.0798058983       -1.0748842235
 C         -3.4836547009        2.4587196620       -1.9865076864
 C         -4.3993302061        3.2463739787       -2.6594180061
 C         -4.4728700989        4.6198672219       -2.4442828082
 C         -3.6161604081        5.2487924063       -1.5590971395
 C         -2.6897278506        4.4789929678       -0.8721998015
 C         -1.6555652702        4.7906190669        0.0784249295
 C         -1.2285740365        5.9696086011        0.6709022620
 C         -0.1882108180        5.9133894879        1.5806930448
 C          0.4091169848        4.7003980703        1.9134810455
 C         -0.0019532369        3.5125218629        1.3382334924
 C         -1.0259892797        3.5667016168        0.4023155141
 C          0.0621329296        0.8281325933       -0.3413997261
 C          2.8241111626       -0.0730270975        0.2129022783
 C          4.1871941866       -0.4049736352        0.1449873948
 H          7.3990042887        1.6135772735        1.6720068723
 H          9.7300026845        0.8349000454        1.3938173229
 H         10.1954328744       -1.2555912093        0.1522158750
 H          8.3078035406       -2.5577580554       -0.8063885999
 H          3.9003434445       -3.2847025038       -1.6291362295
 H          1.5060973494       -2.6839177924       -1.4942794031
 H         -0.2663732632       -2.5166802381        0.0099509945
 H         -1.3872030357       -3.0673987354       -2.0697904200
 H         -1.9553653625       -5.2118708479       -3.1433452658
 H         -3.8244052441       -6.5727977791       -2.3363033951
 H         -5.2121291667       -5.8131772843       -0.4355655492
 H         -6.3150947542       -4.4227434723        1.6652585960
 H         -6.8391979422       -2.7713036385        3.4300844523
 H         -5.4598827591       -0.7680618141        3.7176749744
 H         -3.5342027485       -0.3277449820        2.2477660616
 H         -3.2930937478        0.4995207977        0.0119290186
 H         -3.4193179401        1.3987898228       -2.1799668489
 H         -5.0680524292        2.7854847734       -3.3706404236
 H         -5.2029682193        5.2007826889       -2.9869227847
 H         -3.6608332449        6.3163129734       -1.4074285968
 H         -1.7018679350        6.9082448309        0.4267186916
 H          0.1633614305        6.8202945370        2.0484834755
 H          1.2105143254        4.6841004489        2.6362441642
 H          0.4553411439        2.5768645554        1.6186768905
 H          0.8071122097        1.5862912347       -0.5190386766
 H          2.5589706212        0.8195233351        0.7543270520
  73
       -119.31711827
 O          4.8344051737        1.4250008988        1.4546771818
 C          5.1452233872        0.3915745718        0.7951548653
 C          6.5024342602       -0.0947577548        0.6940668461
 C          7.5570227810        0.5574340968        1.3547522951
 C          8.8498516336        0.0828606680        1.2543195320
 C          9.1306738542       -1.0481154110        0.5032726791
 C          8.1014998195       -1.7119793317       -0.1566570181
 C          6.8007244857       -1.2456278226       -0.0634764046
 O          5.8426095177       -1.9534160035       -0.7293370121
 C          4.5508866515       -1.5454485794       -0.6401301599
 C          3.5987913020       -2.3044582602       -1.3007538216
 C          2.2532243671       -1.9571139749       -1.2406148367
 C          1.8533047922       -0.8265832809       -0.5281096389
 C          0.4374337999       -0.4607120499       -0.4188113382
 C         -0.5312541900       -1.4435451832       -0.2375854884
 C         -1.8681646258       -1.0949718936       -0.0849888720
 N         -2.8272290418       -2.0949228412        0.1147149995
 C         -2.9698137823       -3.2325942608       -0.6533723810
 C         -2.2924582854       -3.6103593117       -1.8045518093
 C         -2.6557900150       -4.8019937054       -2.4035178180
 C         -3.6728521822       -5.5967910488       -1.8807791352
 C         -4.3668251915       -5.2133000004       -0.7479298088
 C         -4.0193314452       -4.0217221805       -0.1287242216
 C         -4.5203015107       -3.3198359771        1.0228092504
 C         -5.5118978037       -3.5960090770        1.9524160607
 C         -5.7224674486       -2.6969901419        2.9817350937
 C         -4.9499430750       -1.5442493261        3.0971685915
 C         -3.9564329124       -1.2474582379        2.1829891500
 C         -3.7563034356       -2.1347713886        1.1345330434
 C         -2.2518012622        0.2412252031       -0.1086842094
 C         -1.2878031326        1.2264423210       -0.3019978082
 N         -1.6629925444        2.5728868986       -0.3370965540
 C         -2.7075955520        3.1062169608       -1.0658149861
 C         -3.5876208486        2.4835607094       -1.9407097950
 C         -4.5399598142        3.2674706211       -2.5655165126
 C         -4.6138580760        4.6392235766       -2.3397984842
 C         -3.7210716954        5.2701732200       -1.4925883748
 C         -2.7579801240        4.5039185779       -0.8537771316
 C         -1.6840497631        4.8191445207        0.0503270564
 C         -1.2397479638        5.9991100636        0.6280285399
 C         -0.1598122899        5.9472040113        1.4906709711
 C          0.4595078645        4.7371366693        1.7924534771
 C          0.0319514167        3.5484897467        1.2309472448
 C         -1.0317747403        3.5986376181        0.3401666569
 C          0.0478155108        0.8749379934       -0.4608531374
 C          2.8081942459       -0.0514598323        0.1186422498
 C          4.1686810615       -0.3995640728        0.0911545493
 H          7.3228913681        1.4355976138        1.9346451524
 H          9.6459417476        0.6035357806        1.7658513161
 H         10.1404628184       -1.4187143435        0.4259817030
 H          8.2907714971       -2.5972755701       -0.7432845754
 H          3.9243388211       -3.1671018060       -1.8602602883
 H          1.5278222380       -2.5530462300       -1.7711089444
 H         -0.2409740089       -2.4798444709       -0.1689289046
 H         -1.5159225936       -2.9898754387       -2.2257471771
 H         -2.1422314760       -5.1208148547       -3.2980211886
 H         -3.9259533984       -6.5220320858       -2.3757572724
 H         -5.1650380385       -5.8232637432       -0.3532940373
 H         -6.1000090775       -4.4974619385        1.8741912859
 H         -6.4893010046       -2.8934211512        3.7154845258
 H         -5.1258384657       -0.8695732576        3.9214327366
 H         -3.3475388529       -0.3630480618        2.2936175423
 H         -3.2869691906        0.5109750724        0.0277778843
 H         -3.5247191333        1.4252698074       -2.1433523262
 H         -5.2378856190        2.8049023217       -3.2470102732
 H         -5.3728490617        5.2172389549       -2.8446263522
 H         -3.7662830012        6.3365622332       -1.3333043129
 H         -1.7305610449        6.9349944930        0.4091209723
 H          0.2054969618        6.8548409348        1.9463869592
 H          1.2916646488        4.7233676731        2.4795988197
 H          0.5073141702        2.6154516490        1.4888234883
 H          0.7827965423        1.6408188071       -0.6476174442
 H          2.5287056075        0.8134075701        0.6966620229
  73
       -119.31699286
 O          4.1617007071       -2.8272932890        1.7449309413
 C          4.7864464102       -1.9723652481        1.0533982576
 C          6.2252801621       -1.9748975533        0.9186058604
 C          7.0121515855       -2.9413116172        1.5676748934
 C          8.3860558979       -2.9361553860        1.4308631812
 C          9.0148159953       -1.9765926963        0.6522648969
 C          8.2556461890       -1.0093355571        0.0017859471
 C          6.8767800746       -1.0045085327        0.1306431428
 O          6.1979340822       -0.0257368635       -0.5354562385
 C          4.8451726874        0.0155682604       -0.4313549666
 C          4.1869591932        1.0233979982       -1.1166717600
 C          2.8016981891        1.1306939882       -1.0547824367
 C          2.0587152711        0.2157514303       -0.3076912558
 C          0.5966101171        0.3121313095       -0.2436730083
 C         -0.1849996158       -0.8407048569       -0.2115220713
 C         -1.5709221723       -0.7539362658       -0.1501560267
 N         -2.3416528864       -1.9225734267       -0.1436758988
 C         -2.2255805074       -2.9638014722       -1.0424697139
 C         -1.3812587732       -3.0971830092       -2.1363349631
 C         -1.4911490962       -4.2456665950       -2.8980803846
 C         -2.4222897624       -5.2346528060       -2.5916892949
 C         -3.2817317499       -5.0961868606       -1.5169111625
 C         -3.1886711969       -3.9535496968       -0.7367291141
 C         -3.9119004122       -3.4781491745        0.4125168575
 C         -4.9421149523       -4.0036741457        1.1778045541
 C         -5.3990924255       -3.2764752288        2.2619751697
 C         -4.8290926425       -2.0507003937        2.5954816518
 C         -3.8007886076       -1.5088836742        1.8478114041
 C         -3.3565332501       -2.2199504718        0.7420711989
 C         -2.1958255442        0.4880956529       -0.1168625725
 C         -1.4192487675        1.6416229369       -0.1446337687
 N         -2.0348832606        2.8985978174       -0.1359830087
 C         -1.7712034115        3.9216768897       -1.0252578671
 C         -0.9083284226        3.9470322216       -2.1123020732
 C         -0.8519461897        5.1059932108       -2.8636951615
 C         -1.6397443187        6.2116461307       -2.5536565747
 C         -2.5210715328        6.1823161880       -1.4885272628
 C         -2.5940821353        5.0302662739       -0.7195317886
 C         -3.3886114097        4.6473924529        0.4169445320
 C         -4.3506370995        5.3006962660        1.1728877654
 C         -4.9171985500        4.6332797064        2.2433176992
 C         -4.5214249381        3.3395508156        2.5725055264
 C         -3.5636074059        2.6703922789        1.8342383088
 C         -3.0120467784        3.3233243139        0.7412875943
 C         -0.0330635218        1.5530791460       -0.2048731308
 C          2.7165645130       -0.7983434849        0.3783186071
 C          4.1157255237       -0.9187189686        0.3352437875
 H          6.5086698796       -3.6808605468        2.1692867198
 H          8.9710073456       -3.6897101216        1.9370729474
 H         10.0879978864       -1.9729919164        0.5463347225
 H          8.7186958669       -0.2503478546       -0.6090646080
 H          4.7713077852        1.7175340157       -1.6995905411
 H          2.3080408664        1.9085774231       -1.6151829447
 H          0.2858660750       -1.8100746023       -0.2294880707
 H         -0.6683003705       -2.3283201607       -2.3918117218
 H         -0.8424666613       -4.3757796205       -3.7511796515
 H         -2.4771737583       -6.1174730827       -3.2102599991
 H         -4.0124276820       -5.8569983490       -1.2891236491
 H         -5.3712742899       -4.9631610659        0.9332592846
 H         -6.2011450501       -3.6675677895        2.8690853434
 H         -5.1937482726       -1.5140894481        3.4584781783
 H         -3.3458401146       -0.5718780772        2.1279065346
 H         -3.2724282906        0.5560843320       -0.1078794815
 H         -0.3108689383        3.0866524737       -2.3727450689
 H         -0.1856095175        5.1525045715       -3.7118684218
 H         -1.5653868126        7.0996685881       -3.1626623749
 H         -3.1434882728        7.0337492135       -1.2597402324
 H         -4.6447826435        6.3103348064        0.9303824103
 H         -5.6697056190        5.1231575522        2.8422038451
 H         -4.9676316591        2.8498767136        3.4249467158
 H         -3.2440813682        1.6781943817        2.1114789253
 H          0.5561194646        2.4558594374       -0.1830883931
 H          2.1769358681       -1.5023875691        0.9892828861
  73
       -119.31690946
 O          4.8348233744        1.4230840142        1.7107473069
 C          5.1584838238        0.3935141377        1.0515375844
 C          6.5190746437       -0.0874470017        0.9698868536
 C          7.5612020033        0.5682419028        1.6466458054
 C          8.8575447981        0.1003583105        1.5622951660
 C          9.1543868716       -1.0264546735        0.8111996112
 C          8.1377994808       -1.6929425979        0.1350389123
 C          6.8337582409       -1.2331647884        0.2116085330
 O          5.8888964756       -1.9406832596       -0.4728531280
 C          4.5951786239       -1.5342084574       -0.4065842701
 C          3.6587347598       -2.2874906597       -1.0949427443
 C          2.3125179463       -1.9397884269       -1.0628889634
 C          1.8944318540       -0.8173314939       -0.3472036278
 C          0.4751711467       -0.4507843642       -0.2918968117
 C         -0.5023212615       -1.4367859336       -0.1935081543
 C         -1.8471587971       -1.0939923208       -0.1175627391
 N         -2.8151904678       -2.1014643665       -0.0306092522
 C         -2.9038415601       -3.1976977386       -0.8648544359
 C         -2.1349698640       -3.5285535724       -1.9721740145
 C         -2.4552706499       -4.6862945328       -2.6560815066
 C         -3.5179911325       -5.4937708614       -2.2588586877
 C         -4.3033716629       -5.1551754665       -1.1722301945
 C         -4.0013720275       -3.9973935376       -0.4706428614
 C         -4.5951190146       -3.3435716670        0.6650145414
 C         -5.6694054396       -3.6467229464        1.4883634343
 C         -5.9629909994       -2.7921736953        2.5353053503
 C         -5.1900831033       -1.6589821986        2.7749038289
 C         -4.1148542549       -1.3379320996        1.9680072774
 C         -3.8319502226       -2.1761091733        0.8991957919
 C         -2.2337536820        0.2414703659       -0.1446886300
 C         -1.2606871893        1.2300463200       -0.2469495560
 N         -1.6401713309        2.5763887607       -0.3040328294
 C         -1.2353450300        3.4814058419       -1.2646976640
 C         -0.4094835108        3.2925880234       -2.3644624540
 C         -0.1863171829        4.3748809150       -3.1952512124
 C         -0.7760806686        5.6124710040       -2.9511024901
 C         -1.6184649334        5.7997010236       -1.8702552883
 C         -1.8548174497        4.7293030576       -1.0208149604
 C         -2.6667629651        4.5591565455        0.1546044982
 C         -3.4819517602        5.4114993509        0.8841136755
 C         -4.1173481979        4.9180853854        2.0092049354
 C         -3.9326331069        3.5997344350        2.4172584672
 C         -3.1244075701        2.7332186430        1.7058677280
 C         -2.5058906832        3.2139392924        0.5605179839
 C          0.0847658419        0.8860866218       -0.3141854986
 C          2.8334283379       -0.0510050009        0.3322545510
 C          4.1958411629       -0.3953697529        0.3260798575
 H          7.3147965448        1.4431746242        2.2264992314
 H          9.6433478310        0.6215780434        2.0884867227
 H         10.1668342343       -1.3919902316        0.7468598509
 H          8.3397047199       -2.5740852843       -0.4535387032
 H          3.9969916056       -3.1449754068       -1.6547920764
 H          1.6015363789       -2.5285934724       -1.6203131625
 H         -0.2161072884       -2.4747136590       -0.1336636478
 H         -1.3218705128       -2.8972664170       -2.2972120887
 H         -1.8703758192       -4.9684735315       -3.5185246901
 H         -3.7346085867       -6.3921670219       -2.8165520365
 H         -5.1375272856       -5.7729485351       -0.8764957554
 H         -6.2586614903       -4.5342170842        1.3151573455
 H         -6.7968517405       -3.0089467692        3.1855400292
 H         -5.4317334753       -1.0200164982        3.6109099331
 H         -3.5048033616       -0.4726331093        2.1751446882
 H         -3.2793278436        0.5062685906       -0.1227840825
 H          0.0395178649        2.3330396257       -2.5706000785
 H          0.4546490672        4.2548818834       -4.0554827587
 H         -0.5756909785        6.4340161955       -3.6219337005
 H         -2.0848722339        6.7559159139       -1.6894322639
 H         -3.6094683548        6.4394824468        0.5814144204
 H         -4.7569895419        5.5651863417        2.5897159534
 H         -4.4268888133        3.2474022930        3.3100637140
 H         -2.9658494970        1.7208164942        2.0425640703
 H          0.8297373965        1.6624724921       -0.3791441664
 H          2.5395333793        0.8055069114        0.9156753045
  73
       -119.31638555
 O          4.9029236087        1.2754232516       -1.4625073766
 C          5.1831227676        0.3067558058       -0.6995177405
 C          6.5357797017       -0.1544008933       -0.4842405107
 C          7.6207187040        0.4543870193       -1.1375780178
 C          8.9091592558        0.0042030180       -0.9284221309
 C          9.1557101195       -1.0597535446       -0.0744640495
 C          8.0963892513       -1.6786277592        0.5812965932
 C          6.7998735811       -1.2346496320        0.3818842519
 O          5.8121130090       -1.8917671828        1.0558986093
 C          4.5255891550       -1.4974208985        0.8734700870
 C          3.5460647618       -2.1915075404        1.5640330566
 C          2.2052765652       -1.8504920297        1.4199682977
 C          1.8357201644       -0.7967451377        0.5839589458
 C          0.4241646145       -0.4368430816        0.4054218361
 C         -0.5550443682       -1.4240952295        0.3465265563
 C         -1.8889171617       -1.0863679806        0.1458308429
 N         -2.8548395741       -2.0961170248        0.0680186528
 C         -2.7617529805       -3.2340449468       -0.7093520495
 C         -1.7780468243       -3.6081432137       -1.6148293036
 C         -1.9460167600       -4.8019782361       -2.2914115586
 C         -3.0667340678       -5.6025249477       -2.0859988313
 C         -4.0627328794       -5.2212016433       -1.2058470218
 C         -3.9155900657       -4.0278260601       -0.5143530077
 C         -4.7367111822       -3.3275973528        0.4367841355
 C         -5.9598332729       -3.6069372224        1.0279443844
 C         -6.4724864273       -2.7070660584        1.9441902622
 C         -5.7728076995       -1.5519132334        2.2830883886
 C         -4.5518019895       -1.2527514055        1.7075956419
 C         -4.0444052821       -2.1392156671        0.7674363426
 C         -2.2631105999        0.2476945323        0.0257103075
 C         -1.2895080372        1.2381199857        0.0970583107
 N         -1.6497397823        2.5846891715       -0.0290699872
 C         -2.4334687895        3.1228644987       -1.0293454539
 C         -3.0174938424        2.5037163119       -2.1260154510
 C         -3.7390441396        3.2921209245       -3.0032792559
 C         -3.8727069881        4.6638179159       -2.8056318169
 C         -3.2722254822        5.2901385107       -1.7285496573
 C         -2.5432626222        4.5197119507       -0.8352351386
 C         -1.7841107439        4.8282690091        0.3472095667
 C         -1.5313935449        6.0029531890        1.0396993867
 C         -0.7534471484        5.9427536180        2.1815857877
 C         -0.2458219786        4.7302787393        2.6411186824
 C         -0.4856632398        3.5463988235        1.9687648285
 C         -1.2440887872        3.6049536115        0.8074141723
 C          0.0463629427        0.8967482612        0.2759216187
 C          2.8168067772       -0.0896953922       -0.1001216760
 C          4.1753777150       -0.4269314472        0.0228213244
 H          7.4128417790        1.2802444960       -1.7986540442
 H          9.7286752081        0.4912673293       -1.4358123446
 H         10.1620501508       -1.4123833211        0.0863375725
 H          8.2589548711       -2.5106771959        1.2482139206
 H          3.8463755153       -2.9963593087        2.2160257058
 H          1.4593425355       -2.3877158914        1.9838251402
 H         -0.2810049062       -2.4614620173        0.4515578106
 H         -0.9152678252       -2.9855640748       -1.7961809214
 H         -1.1925337748       -5.1170024195       -2.9974992129
 H         -3.1598867618       -6.5294778215       -2.6310306062
 H         -4.9388404105       -5.8343341906       -1.0599141016
 H         -6.4941464181       -4.5109383684        0.7791735224
 H         -7.4236974700       -2.9048683814        2.4139016827
 H         -6.1898692044       -0.8762939829        3.0144239665
 H         -4.0075962582       -0.3656646293        1.9941928586
 H         -3.2977666834        0.5111956084       -0.1258840149
 H         -2.9003994899        1.4452662688       -2.3015940903
 H         -4.2044532935        2.8336594563       -3.8624272141
 H         -4.4456332453        5.2452909147       -3.5116116360
 H         -3.3612048445        6.3562290950       -1.5863264127
 H         -1.9365191914        6.9413785750        0.6933464623
 H         -0.5413831135        6.8462608123        2.7328653834
 H          0.3456731914        4.7124194427        3.5438138901
 H         -0.1022067793        2.6091616008        2.3419711987
 H          0.7934505534        1.6729026001        0.3062291128
 H          2.5634943964        0.7113790918       -0.7742759926
  73
       -119.31627851
 O          4.9193464442        1.3293560642       -1.4078654644
 C          5.2001102034        0.3478581015       -0.6616057995
 C          6.5559812820       -0.0885728160       -0.4185120374
 C          7.6441298992        0.5538765659       -1.0331423566
 C          8.9366311228        0.1340063654       -0.7895370592
 C          9.1843477410       -0.9312319665        0.0626473265
 C          8.1217143942       -1.5862247452        0.6765779953
 C          6.8205564615       -1.1758622187        0.4388024700
 O          5.8289003046       -1.8720227872        1.0667314003
 C          4.5389545978       -1.5101045632        0.8461843722
 C          3.5543697897       -2.2496364842        1.4803277635
 C          2.2112311682       -1.9300643265        1.3101985060
 C          1.8425668281       -0.8523428464        0.5047611488
 C          0.4316931396       -0.4904477853        0.3267503707
 C         -0.5558033766       -1.4693919782        0.2558298641
 C         -1.8894163228       -1.1154356372        0.0859885928
 N         -2.8757170177       -2.1081821533        0.0337571355
 C         -2.8524873363       -3.2319505240       -0.7667529571
 C         -1.9304586147       -3.6067888001       -1.7344410783
 C         -2.1647821279       -4.7812448487       -2.4250722935
 C         -3.2892574866       -5.5621806637       -2.1698412377
 C         -4.2223313037       -5.1813295701       -1.2228225946
 C         -4.0093639666       -4.0064313775       -0.5171451542
 C         -4.7560753018       -3.3097462917        0.4961418291
 C         -5.9446577446       -3.5757068995        1.1597461111
 C         -6.3783789728       -2.6836262116        2.1233298358
 C         -5.6361703930       -1.5476962754        2.4360803255
 C         -4.4490717770       -1.2613212800        1.7881775663
 C         -4.0204716461       -2.1416887625        0.8042467244
 C         -2.2537575105        0.2225297086       -0.0156601242
 C         -1.2710973847        1.2033369915        0.0565104609
 N         -1.6239241485        2.5532344353       -0.0583054884
 C         -2.3908407710        3.0999973285       -1.0662972055
 C         -2.9505245801        2.4893205713       -2.1803143787
 C         -3.6556879444        3.2844499936       -3.0643502876
 C         -3.7975450898        4.6537381679       -2.8548940897
 C         -3.2228045446        5.2710183504       -1.7586104455
 C         -2.5098219006        4.4939762427       -0.8580542073
 C         -1.7757571990        4.7905515572        0.3434595065
 C         -1.5438040647        5.9560780479        1.0581168886
 C         -0.7888691811        5.8831938716        2.2148940405
 C         -0.2804162686        4.6676516034        2.6655447519
 C         -0.4991277085        3.4924986025        1.9710086696
 C         -1.2380119857        3.5637224278        0.7978304592
 C          0.0615735045        0.8487372518        0.2264146303
 C          2.8283692158       -0.1098057601       -0.1344800809
 C          4.1893024708       -0.4252078803        0.0141185425
 H          7.4352873141        1.3819381416       -1.6912157515
 H          9.7582841754        0.6469734413       -1.2671020824
 H         10.1943036980       -1.2574178016        0.2537751081
 H          8.2854508323       -2.4213969738        1.3393239159
 H          3.8528457625       -3.0692636826        2.1145247967
 H          1.4624146340       -2.5013047553        1.8353661403
 H         -0.2908280882       -2.5117494742        0.3328064499
 H         -1.0645985949       -2.9988564681       -1.9488306055
 H         -1.4619241283       -5.0967531615       -3.1812917712
 H         -3.4363308127       -6.4735938289       -2.7291101010
 H         -5.1014000936       -5.7796014004       -1.0384225549
 H         -6.5127361298       -4.4643229236        0.9309122189
 H         -7.3007858023       -2.8726207261        2.6510777593
 H         -5.9920506030       -0.8777415187        3.2042117911
 H         -3.8699342353       -0.3890398993        2.0511396646
 H         -3.2883503983        0.4962119092       -0.1503621558
 H         -2.8267383724        1.4324949001       -2.3618817944
 H         -4.1007119092        2.8337775347       -3.9385913454
 H         -4.3562175427        5.2409991496       -3.5676469643
 H         -3.3188816025        6.3352530573       -1.6076570077
 H         -1.9482138183        6.8971179911        0.7182023817
 H         -0.5949452365        6.7794391609        2.7842389629
 H          0.2948435303        4.6407285226        3.5786230825
 H         -0.1140316027        2.5521295133        2.3348711820
 H          0.8130418917        1.6198499146        0.2734283425
 H          2.5790550684        0.7071883034       -0.7905704000
