  85
  -98.5370997057000       0.522217557380978      !
 C         -1.2528733814        4.7245361224        0.2840119694
 C         -1.0107413018        3.9185064011       -0.9952400016
 C         -1.9480403375        4.3863385917       -2.1107792062
 C         -1.1711617125        2.4395957033       -0.7302667187
 C         -2.3141017073        1.8990517206       -0.3118923668
 C         -2.4578065310        0.4842129090       -0.0364731400
 C         -3.7548944291        0.0632640529        0.6211006887
 C         -3.8937031106        0.7394912177        1.9881910102
 C         -4.9663287052        0.3750600979       -0.2605289182
 C         -1.4648561747       -0.3837511108       -0.3149318067
 C         -1.7108403979       -1.8381817563       -0.1498539117
 C         -2.6673944873       -2.4603402010       -0.9562315406
 C         -2.9436427512       -3.8084976362       -0.8364945475
 C         -2.2753192685       -4.5739163562        0.1043924500
 C         -1.3486717155       -3.9680373774        0.9323373529
 C         -1.0759023487       -2.6163027851        0.8110101343
 C         -0.1424705575        0.0723858462       -0.9198706078
 C         -0.0705329245       -0.3613961889       -2.4163035772
 C         -1.2846061101        0.1386473903       -3.2001951163
 C          0.1295259305       -1.8555572851       -2.6581163782
 P          1.2628832813       -0.8181386846        0.0528175490
 C          2.8286163150       -0.2799543997       -0.8816624183
 C          3.5691784735        0.9958088552       -0.4877520867
 C          4.7475071479        1.2221555257       -1.4361172976
 C          5.7125978729        0.0422251123       -1.3929528419
 C          4.9842081205       -1.2478734767       -1.7550042465
 C          3.7980429251       -1.4667239417       -0.8212851947
 C          1.4126704951        0.1996894529        1.6440740057
 C          0.0989822625        0.5061152300        2.3615338124
 C          0.3774867679        1.3036223253        3.6351427350
 C          1.2926474992        0.5217021338        4.5719550694
 C          2.5977492879        0.1719075515        3.8642051729
 C          2.3184690158       -0.6050121076        2.5809770209
 C          0.0633001535        1.6029846704       -0.8633724806
 H         -1.0645894435        5.7815183996        0.1074579170
 H         -0.5933289688        4.3835186993        1.0793251430
 H         -2.2798767612        4.6102855321        0.6210245850
 H          0.0202131682        4.1029096616       -1.3195034774
 H         -1.7599897198        3.8291683928       -3.0262722577
 H         -2.9867036441        4.2367383925       -1.8277918170
 H         -1.7955059525        5.4442998681       -2.3140851827
 H         -3.1860522685        2.5189402673       -0.1739010006
 H         -3.7302716217       -1.0167968480        0.7902244133
 H         -3.9302834637        1.8220503036        1.8923262316
 H         -3.0490221129        0.4803043903        2.6226678760
 H         -4.8074805852        0.4084133565        2.4773881048
 H         -4.8510695093       -0.0766735130       -1.2432845761
 H         -5.0970474320        1.4463127883       -0.3920864582
 H         -5.8707429790       -0.0221830467        0.1957586263
 H         -3.2034012101       -1.8757304368       -1.6901633700
 H         -3.6841690692       -4.2629431872       -1.4791961303
 H         -2.4849970777       -5.6293498091        0.1971969915
 H         -0.8360556847       -4.5486009202        1.6856564773
 H         -0.3716857129       -2.1645820929        1.4913512182
 H          0.8026497082        0.1468009068       -2.8444743521
 H         -1.4077409498        1.2124779138       -3.0889951832
 H         -1.1577939018       -0.0880420296       -4.2573910159
 H         -2.1947218242       -0.3410302688       -2.8551587757
 H          0.3828601892       -2.0231396488       -3.7040315782
 H         -0.7660578518       -2.4230330539       -2.4300806721
 H          0.9416621902       -2.2408044932       -2.0432136706
 H          2.5185135840       -0.1778358427       -1.9269845152
 H          3.9557957809        0.9097133586        0.5299111234
 H          2.9091539834        1.8636691674       -0.5357143316
 H          5.2699112954        2.1406171048       -1.1571603647
 H          4.3745724395        1.3476460761       -2.4559579557
 H          6.5411355781        0.2121291243       -2.0840839071
 H          6.1296476331       -0.0475232942       -0.3868159241
 H          4.6263936210       -1.1856607660       -2.7858527943
 H          5.6698079557       -2.0956843206       -1.6903108289
 H          3.2722306592       -2.3843431597       -1.0982201949
 H          4.1637985713       -1.5961693171        0.1999733074
 H          1.9094977503        1.1524149767        1.4303327044
 H         -0.5712759783        1.0751809817        1.7185272366
 H         -0.4096586772       -0.4202889499        2.6338574024
 H          0.8515346502        2.2538723273        3.3744330507
 H         -0.5652945069        1.5309711410        4.1381612619
 H          1.4996432308        1.1079150855        5.4701250297
 H          0.7911053443       -0.3984351173        4.8811074430
 H          3.2351265334       -0.4198280913        4.5253129940
 H          3.1346235485        1.0928118709        3.6203956244
 H          1.8330929328       -1.5535324902        2.8262499317
 H          3.2616681070       -0.8409919024        2.0830562101
 H          0.7009813195        1.8738242892       -0.0179566040
 H          0.6052924389        1.9174846455       -1.7609295768
  85
  -98.5370156675000       0.477782442619022      !
 C         -0.6808349917        4.6723368359        0.0875954444
 C         -1.0284375675        3.8759933711       -1.1757234394
 C         -2.2656371353        4.4703718818       -1.8488906194
 C         -1.1916135409        2.4169667122       -0.8249343453
 C         -2.3302505550        1.8849167106       -0.3839130434
 C         -2.4613817209        0.4807845642       -0.0502691524
 C         -3.7556430650        0.0746402839        0.6219359896
 C         -3.8965369334        0.7987304306        1.9641398608
 C         -4.9721593881        0.3484944617       -0.2655556265
 C         -1.4685598146       -0.3932369406       -0.3115646979
 C         -1.7190419677       -1.8455930531       -0.1385706086
 C         -2.6850807261       -2.4626960092       -0.9377260372
 C         -2.9679644395       -3.8092646738       -0.8159652050
 C         -2.2960210767       -4.5786082026        0.1191139693
 C         -1.3568975316       -3.9785596109        0.9373786944
 C         -1.0772524816       -2.6284794394        0.8138070467
 C         -0.1464445218        0.0581306011       -0.9188316963
 C         -0.0705157810       -0.3771624340       -2.4142822940
 C         -1.2767527639        0.1274909783       -3.2074145348
 C          0.1220025259       -1.8733465224       -2.6493066539
 P          1.2627831771       -0.8247952235        0.0555701472
 C          2.8240421381       -0.2524788718       -0.8660656365
 C          3.5413587646        1.0313881973       -0.4554748380
 C          4.7133910140        1.2920210457       -1.4026592973
 C          5.7003023874        0.1298255254       -1.3754438179
 C          4.9957719200       -1.1698407434       -1.7507925208
 C          3.8147294718       -1.4220140885       -0.8187530964
 C          1.3966199185        0.1766343269        1.6592692202
 C          0.0820465690        0.4626822834        2.3836600217
 C          0.3579712341        1.2543268921        3.6616969698
 C          1.2841940182        0.4746382771        4.5896051084
 C          2.5895658051        0.1408875031        3.8747044097
 C          2.3121224129       -0.6283392089        2.5864669457
 C          0.0563505715        1.5870453187       -0.8574933706
 H         -0.5464407841        5.7249808929       -0.1522141997
 H          0.2378805036        4.3020430710        0.5369985694
 H         -1.4805282276        4.5817035679        0.8193829952
 H         -0.1884867345        3.9671053442       -1.8753961727
 H         -2.0420002619        5.4663451060       -2.2255596298
 H         -2.5836627712        3.8483940014       -2.6828166883
 H         -3.0902544293        4.5553671874       -1.1459525591
 H         -3.2152715128        2.4931200140       -0.2934515815
 H         -3.7233203088       -0.9988808172        0.8283029363
 H         -3.9317215784        1.8771465856        1.8284547511
 H         -3.0536405541        0.5619428770        2.6095389398
 H         -4.8116856863        0.4865619116        2.4631842044
 H         -4.8558223331       -0.1307855299       -1.2349234291
 H         -5.1140365918        1.4140899066       -0.4280694824
 H         -5.8711863728       -0.0442671332        0.2050503654
 H         -3.2209193834       -1.8754541346       -1.6695566367
 H         -3.7156553762       -4.2596252113       -1.4531843505
 H         -2.5108346868       -5.6328502487        0.2138176021
 H         -0.8389736407       -4.5628302399        1.6842671595
 H         -0.3609157263       -2.1824555699        1.4850746384
 H          0.8076746515        0.1241207637       -2.8401163094
 H         -1.3722411978        1.2072352785       -3.1293445019
 H         -1.1601454397       -0.1341500620       -4.2576776279
 H         -2.1967212797       -0.3192908105       -2.8440541849
 H          0.9344728231       -2.2590279969       -2.0350788746
 H          0.3711110677       -2.0474787428       -3.6950893736
 H         -0.7756403713       -2.4351215481       -2.4153892855
 H          2.5155285994       -0.1438484246       -1.9113040897
 H          3.9317175592        0.9377375114        0.5600677731
 H          2.8658166937        1.8877445273       -0.4895577623
 H          5.2190779854        2.2165025545       -1.1130031368
 H          4.3365472607        1.4233236971       -2.4203209150
 H          6.5239101571        0.3231088068       -2.0662735037
 H          6.1214649887        0.0366143354       -0.3713733247
 H          4.6358211548       -1.1031126953       -2.7806127800
 H          5.6975762279       -2.0049872684       -1.6961204733
 H          3.3061196233       -2.3460683280       -1.1062486786
 H          4.1840423504       -1.5561517612        0.2006084239
 H          1.8830280386        1.1366669439        1.4550237097
 H         -0.5976483000        1.0281387001        1.7470126406
 H         -0.4152594752       -0.4708770778        2.6523240386
 H          0.8210253807        2.2112795278        3.4059576688
 H         -0.5848886110        1.4684399654        4.1703086422
 H          1.4896066981        1.0568420146        5.4907937182
 H          0.7924089829       -0.4521160941        4.8948024871
 H          3.2339336214       -0.4508033782        4.5290385282
 H          3.1181165822        1.0679999920        3.6363332284
 H          1.8351037974       -1.5827042519        2.8257162754
 H          3.2554158641       -0.8528596060        2.0833445145
 H          0.6204445454        1.8581718165        0.0380715686
 H          0.6702238296        1.8929412900       -1.7096423920
