  38
  -62.0440644900000       0.500121692403158      !
 C         -3.4860052095       -3.1511143313       -0.4231433042
 C         -2.1893018964       -3.3420574056       -0.8637712916
 C         -1.2636447302       -2.3164427507       -0.7739186505
 C         -1.6163292772       -1.0919367734       -0.2180988664
 C         -2.9448704541       -0.8898343914        0.1690221027
 C         -3.8691347715       -1.9170748365        0.0751643182
 O         -3.3745283595        0.3218994429        0.6383668467
 C         -2.5780573900        1.4008802033        0.3313069648
 C         -3.1559720278        2.6546330333        0.4299826029
 C         -2.4115816134        3.7874001010        0.1459685997
 C         -1.0961355293        3.6554840925       -0.2550610024
 C         -0.5156449999        2.4021413817       -0.3669438922
 C         -1.2405693750        1.2590520960       -0.0602993146
 N         -0.6948586491       -0.0402989034       -0.0896130194
 C          0.6527933159       -0.3138384852        0.0960058947
 C          1.0192491864       -1.4467799280        0.8778648622
 C          2.3392010386       -1.7100486128        1.0768883214
 C          3.3196541751       -0.8639681998        0.5064926316
 C          4.7021612036       -1.0695339789        0.6477736566
 C          5.5924783242       -0.1974985225        0.0800675069
 C          5.1329820706        0.9108071552       -0.6454628819
 C          3.7924704857        1.1401295845       -0.7981709149
 C          2.8537525853        0.2567013014       -0.2298047083
 N          1.5417747979        0.4995779664       -0.4183803787
 H         -4.2064742185       -3.9516813836       -0.4822997509
 H         -1.8907465970       -4.2900235138       -1.2839922248
 H         -0.2555727381       -2.4634623697       -1.1311969378
 H         -4.8796360079       -1.7303218083        0.4015962036
 H         -4.1861283522        2.7196295182        0.7425028668
 H         -2.8651210733        4.7623602318        0.2347548709
 H         -0.5085279800        4.5306522108       -0.4865049042
 H          0.5110168175        2.2937835304       -0.6719622008
 H          0.2519993274       -2.0576515917        1.3281201246
 H          2.6521783562       -2.5509517374        1.6807060204
 H          5.0472316722       -1.9261651693        1.2099895310
 H          6.6550567967       -0.3576606633        0.1885109153
 H          5.8510350467        1.5869368173       -1.0862714313
 H          3.4246044028        1.9867083565       -1.3566947230
  38
  -62.0440640300000       0.499878307596842      !
 C         -3.0279258606       -3.1672875219       -0.9876326585
 C         -1.7009137265       -3.1407227748       -1.3710198636
 C         -0.9109153581       -2.0348556942       -1.1005286187
 C         -1.4347291992       -0.9427930106       -0.4229141976
 C         -2.7844133024       -0.9724114760       -0.0496201079
 C         -3.5718649982       -2.0747069240       -0.3336416793
 O         -3.3888320850        0.0714001453        0.6121497221
 C         -2.7499504541        1.2790208305        0.5301036484
 C         -3.4824277050        2.4239519777        0.7968564623
 C         -2.8846109763        3.6689106546        0.6943871932
 C         -1.5671642718        3.7674459955        0.2852989485
 C         -0.8329328964        2.6250084440        0.0160982222
 C         -1.3998591405        1.3658078498        0.1765611162
 N         -0.6738948903        0.1874509239       -0.0609122938
 C          0.6944468234        0.1545452855        0.1654368520
 C          1.2281248969        0.9154307616        1.2450644631
 C          2.5676182227        0.8752117879        1.4797850561
 C          3.4037810315        0.0866434150        0.6545106860
 C          4.7964870586       -0.0014219941        0.8158648010
 C          5.5390217981       -0.8021513285       -0.0106273819
 C          4.9162125587       -1.5440592172       -1.0242395833
 C          3.5611414155       -1.4810880961       -1.2053033568
 C          2.7729009928       -0.6613970596       -0.3737307828
 N          1.4445961333       -0.6052624255       -0.5938576926
 H         -3.6447425644       -4.0273544132       -1.1973130007
 H         -1.2681107211       -3.9836129317       -1.8874015061
 H          0.1254649906       -2.0111476253       -1.3908843155
 H         -4.6043170599       -2.0594622046       -0.0215106716
 H         -4.5152549441        2.3171468939        1.0876555293
 H         -3.4553383784        4.5569445278        0.9164532067
 H         -1.1033329611        4.7349822110        0.1709013386
 H          0.1918328636        2.7042107482       -0.3141341834
 H          0.5651783810        1.4821279370        1.8804532884
 H          3.0032618449        1.4255779642        2.3022072477
 H          5.2680348632        0.5734821156        1.6007517140
 H          6.6098791216       -0.8675813658        0.1137921396
 H          5.5192721828       -2.1693677589       -1.6660684054
 H          3.0687938492       -2.0437872599       -1.9829866258
