167
 energy: -250.214433483434 gnorm: 0.000107928511 xtb: 6.7.1 (edcfbbe)
C          -16.00065484309492        8.09784050818178       -2.07172811330238
C          -15.33229128691017        7.15881328959221       -1.41297715472071
C          -15.42162517071052        5.71840620534009       -1.61841012770903
C          -14.77587261101595        4.86545772139076       -0.72242891917347
C          -14.84181043885075        3.49401278214322       -0.86556221138450
C          -15.54499021682818        2.93253796383164       -1.92223381975025
C          -15.64187402004164        1.43469479205711       -2.07951872365280
O          -14.62137748697143        0.71464330808395       -1.43035698231862
C          -13.35013523940381        0.79451768544608       -1.91752083210217
C          -12.94784343411431        1.55196686121210       -3.00641992431450
C          -11.62046395536849        1.54051168636673       -3.43045739886582
C          -10.65112665899355        0.79048084014803       -2.79909865569411
C          -11.03982630741294        0.03582244949637       -1.69815996844884
C          -12.38085052512744        0.03281585643445       -1.25401470745527
C          -12.43673395794325       -0.84056571663356       -0.11925229317858
C          -13.45724087823532       -1.24270141812148        0.73272166656760
C          -13.15645691150520       -2.12499061502256        1.75103597590618
C          -11.86135943494037       -2.60981848434742        1.92167815001017
C          -10.83101359896328       -2.22461575832904        1.08549395301324
C          -11.12160293069796       -1.32839710017047        0.06600110749538
N          -10.29227898049021       -0.77696405619367       -0.88208105811630
C           -8.89460728470982       -1.08583831181640       -1.01571265851776
C           -8.67157275366350       -2.42468716175624       -1.73204580945915
C           -7.26146354308726       -2.95728811775409       -1.49606702312512
C           -7.05673417869590       -4.33994000502168       -2.11553561327619
C           -5.81928647533749       -5.05713209583525       -1.57115743703401
C           -5.98271325242697       -5.50412052136759       -0.11284244042664
O           -5.84687541651908       -4.44930610981297        0.81773250041408
C           -4.61482517779489       -3.94628509138354        1.09661940310451
C           -3.39959177827500       -4.52741674034888        0.76232012247415
C           -2.19877174244791       -3.95555986907624        1.16941671076865
C           -2.14916600215322       -2.77337633912570        1.87868216010434
C           -3.35446950220439       -2.14758671549455        2.16010675403591
C           -4.58340275386032       -2.74131717382219        1.81142634274177
C           -5.62002601134683       -1.88060422489349        2.30710849501813
C           -7.00705617582012       -1.94375525284940        2.28574362514988
C           -7.72775568583820       -0.89796491924644        2.82826681852142
C           -7.07985555205435        0.20563512329073        3.37646462139353
C           -5.70024771627539        0.27804386957044        3.43238261625456
C           -4.97363686699974       -0.78549810149412        2.91889373031325
N           -3.60058722247301       -0.96043997061328        2.83192233169421
C           -2.65723477023380       -0.11856750114187        3.41574356632253
C           -2.84329281115384        0.31269813816677        4.72704602674493
C           -1.94067757644423        1.17682769154306        5.31807845874328
C           -0.81442295408407        1.59492047665375        4.63235845878182
C           -0.58722865217949        1.15816503020787        3.33249095947584
N            0.57351980016103        1.54963860901044        2.66349707306346
C            1.03706969751635        2.84906024083082        2.55694695002367
C            0.40613744454728        4.03777116774635        2.88792624968629
C            1.08768096071640        5.21573323549050        2.64385713828621
C            2.35965987359044        5.21381981470481        2.07692051649594
C            2.98399626737047        4.03237192438184        1.72784196731469
C            2.31955039446076        2.83705402018339        1.96710004265846
C            2.64886428418716        1.45851482583801        1.73819388191047
C            3.80556836799105        0.82480340466130        1.26491219319737
O            4.84032314681233        1.63550505293040        0.91836069396514
C            6.11367659258679        1.07392832594756        0.67898815797603
C            6.29422203644351        0.57992149159790       -0.76043948893173
C            7.53688041274251       -0.29648814797080       -0.92285461712944
C            8.85896175614731        0.43640569538315       -0.68040889021267
C            9.26393023649933        1.36571427497691       -1.82640358815717
C            9.91925914917313        0.61453385206723       -2.99381391680688
N           11.20029224175639        0.07375247340670       -2.62771210776519
C           12.35374964932132        0.81282307842431       -2.51452287605364
C           12.57286783716865        2.15300181661149       -2.80329505770967
C           13.85170084560703        2.64961250786887       -2.64232913811094
C           14.89692819291771        1.83362519813550       -2.21653472999499
C           14.68813818420328        0.50047391487141       -1.92644041044027
C           13.40450865027859       -0.01780166745014       -2.05639717177396
C           12.82970446384636       -1.32117348922591       -1.86496962862955
C           13.32834810995464       -2.55151959699766       -1.42416792346775
O           14.63127823044998       -2.71687619715466       -1.01244047733199
C           14.96527710306619       -2.05170758627407        0.19443423708997
C           16.41190422119385       -1.63726669006613        0.20567100199829
C           16.84505056502426       -0.65287189228865        1.08761419065462
C           18.16961069356978       -0.26989558411558        1.11994202942128
C           19.10622329554408       -0.85595210758586        0.26612647650239
C           20.51619442556713       -0.48681985810218        0.25721391720495
C           21.11650116180238        0.38681304388326        1.05679763349613
C           18.65872349107198       -1.83851962159417       -0.61825313797900
C           17.33408228436321       -2.22780646348002       -0.64687072087807
C           12.48387075678064       -3.65005321738107       -1.42966934849834
C           11.15957873912914       -3.53700803226638       -1.83878176372297
C           10.62902889228872       -2.32627006866095       -2.23427175783169
C           11.46914502298182       -1.21920270720335       -2.24751779471938
C            3.80872548399003       -0.56301384455369        1.22622040928683
C            2.70839828069165       -1.29534290321263        1.66210082567254
C            1.56923146332215       -0.68966011707040        2.14911768439521
C            1.54586214420134        0.69682732353172        2.17036796933831
C           -1.52791391340539        0.32329200587380        2.70312106365509
C           -1.37744553711567        0.03677706796280        1.32780127667314
N           -1.27325415937309       -0.13011500253317        0.19812793996908
C          -16.18272968488981        3.77285875674510       -2.82743902343200
C          -16.12614793660131        5.14301536811410       -2.67721923517595
H          -15.87071093167513        9.14179814508594       -1.84311330636545
H          -16.70366841206806        7.87295030627530       -2.85538155017732
H          -14.65111743498239        7.45701150164986       -0.62480351108628
H          -14.22013548426783        5.28688402001088        0.10337379050266
H          -14.34097883060668        2.84940277531428       -0.15825167863449
H          -15.68832146505344        1.16693142242756       -3.14496220939584
H          -16.56577142589156        1.08268789413393       -1.60342889006507
H          -13.65256596539867        2.17099684109456       -3.53842880009188
H          -11.35033378554127        2.14261955413990       -4.28556731870163
H           -9.63215993623393        0.79570557818145       -3.15330304013370
H          -14.45820947518894       -0.86764994155362        0.58956877937424
H          -13.93404347978411       -2.45131515558545        2.42618949216565
H          -11.65860618273412       -3.30503978976484        2.72380294478879
H           -9.83597816835908       -2.61788838410381        1.22363943367080
H           -8.45394817121313       -1.13083775876263       -0.01414786786358
H           -8.40379497675085       -0.27571563999629       -1.55885910221636
H           -9.39546309516067       -3.14536974654594       -1.34352328086317
H           -8.86432233276486       -2.30826757336208       -2.80065846729243
H           -7.09173427982280       -3.02165797074834       -0.42240711586716
H           -6.52643163403006       -2.25945660523159       -1.90329082512489
H           -7.93533577960346       -4.95843264604235       -1.91472999695236
H           -6.96584937844054       -4.24440922661295       -3.19983934691909
H           -5.62873874665264       -5.94645329209835       -2.17526902636885
H           -4.94949116974082       -4.40135479623245       -1.64802923641495
H           -5.28088902658701       -6.31329436608689        0.12094687022216
H           -6.99731684313403       -5.87988311680980        0.04883499463431
H           -3.36259581031454       -5.44178130048570        0.19223638568293
H           -1.27636143741777       -4.45544561641226        0.91572450794479
H           -1.20310008182647       -2.36359195381027        2.19051738257025
H           -7.49585540047926       -2.80654179544754        1.86160308974563
H           -8.80761624266184       -0.92547457717749        2.82320363304020
H           -7.66733475308290        1.02094922840321        3.77144156224841
H           -5.21150868340233        1.14363147416340        3.85405438624358
H           -3.69520595135783       -0.04999213196872        5.28059376053172
H           -2.10167770505344        1.50522355920182        6.33354099396904
H           -0.08993505475278        2.24179002767742        5.10228155146310
H           -0.58639602085287        4.04720967167812        3.31392104127800
H            0.62096601552535        6.15680693014372        2.89490817995251
H            2.85858922963416        6.15547669361901        1.90198374929679
H            3.96258956150870        4.02243722980359        1.27570150022758
H            6.81084668235669        1.89031638493451        0.88800566446334
H            6.31128004147856        0.26091489420230        1.38915911003807
H            5.41258032764329        0.00153429595560       -1.04432031586306
H            6.34090217522488        1.44231725525215       -1.42665256625789
H            7.53349493685369       -0.71670958432538       -1.93037783466352
H            7.46865549875795       -1.13234561990494       -0.22204213830819
H            9.65050865572704       -0.30109484673297       -0.53241666892172
H            8.78325325152307        1.01303002686653        0.24176049396281
H            8.39245415039075        1.90484054874584       -2.19916206754435
H            9.97869261767043        2.10205169718482       -1.45402737132218
H            9.27887442489310       -0.20292902587921       -3.32878423963270
H           10.05952080013007        1.29960602874528       -3.83637837460197
H           11.77588530664202        2.79248837934571       -3.15208315397778
H           14.04675801219132        3.68941480075132       -2.86066533895092
H           15.88804907234444        2.25058341118568       -2.11713972240190
H           15.51113500568498       -0.12617531362017       -1.62161692197422
H           14.78109282020633       -2.74040380828328        1.03794640938390
H           14.32592835567494       -1.17201005175568        0.34201309143057
H           16.13248797742324       -0.18191399825328        1.75046807018404
H           18.47749176917772        0.49880398511450        1.81156912920559
H           21.10809218145277       -1.00216047816353       -0.49005723296691
H           20.59408233650890        0.93181795986563        1.82417519899125
H           22.17031818103037        0.59012339568031        0.97199004858050
H           19.36411283873522       -2.30474095853237       -1.29189460328779
H           16.99714115362309       -2.98456145640103       -1.33816272344426
H           12.87466489026491       -4.60265972067373       -1.10748335837454
H           10.53041977954630       -4.41449598271480       -1.82941591323231
H            9.59316903613114       -2.25446009711618       -2.52688049291402
H            4.66938517837427       -1.10400206270815        0.86733996575865
H            2.75832471216538       -2.37325491826421        1.62445899638675
H            0.74246281441949       -1.27837741698874        2.51247993110657
H          -16.72845627359790        3.34516928723594       -3.65738846622593
H          -16.62604983497288        5.77226591920591       -3.39709646446595
