167
 energy: -250.163293571716 gnorm: 0.000121924327 xtb: 6.7.1 (edcfbbe)
C           -5.67666292760835       -8.02527786679978        0.57793134456602
C           -5.55826581309828       -6.91715850915669       -0.14885214926148
C           -4.86252270930092       -5.69907572660827        0.23071919779044
C           -4.38813393265707       -5.46117906218492        1.52299623029406
C           -3.70356035995588       -4.30273982418684        1.82340953839025
C           -3.45621205513655       -3.34961842424936        0.84236592718013
C           -2.63804232781289       -2.12144856246073        1.14625583925112
O           -2.97371423708758       -1.00832086624625        0.34168156358655
C           -4.18472721828430       -0.42089232731414        0.52031498901001
C           -5.09994124941694       -0.75835943078553        1.51033357838407
C           -6.30406748574252       -0.07530775446099        1.63471208287724
C           -6.65976215765194        0.94942211873798        0.78112256120256
C           -5.76715599977308        1.27716175600221       -0.23146434839795
C           -4.53016331121606        0.60809431956324       -0.36373686080053
C           -3.87624150092633        1.18099736307640       -1.50461771174365
C           -2.67884946946109        0.92388434669918       -2.15641093671345
C           -2.35486769494222        1.67568361623700       -3.26827233567898
C           -3.21111913641159        2.66762250167377       -3.73978476823128
C           -4.41917414986069        2.92638215793518       -3.12272987611728
C           -4.75163315370436        2.17586843417729       -2.00273639200174
N           -5.88735881023551        2.21281192800601       -1.23124114167830
C           -7.07307996225074        2.95088986690350       -1.57496064937282
C           -7.00232724484341        4.43253395479788       -1.19018553166141
C           -7.21029466350795        4.66992125344372        0.30392895039512
C           -7.24396013132794        6.16206786418244        0.66439124915604
C           -5.91193460267936        6.73733202401617        1.15002264137371
C           -4.75005017677799        6.56113431508320        0.17470165026599
O           -4.24190624640757        5.25359036188976        0.35300166716219
C           -3.12219925963469        4.87196104621956       -0.30632957051119
C           -2.57618797029745        5.52369512197245       -1.41071913502729
C           -1.43522992944716        5.03620208912399       -2.03701641308491
C           -0.77099272232455        3.91331271100303       -1.57942421552744
C           -1.28043922393098        3.28488019675514       -0.45105259186218
C           -2.47191835525258        3.72828558209848        0.16451130574382
C           -2.73316706666994        2.83551725031329        1.25383437841850
C           -3.73023179808956        2.75113833397960        2.21524278510720
C           -3.63982969293581        1.76259319370058        3.17580651407679
C           -2.56311605634925        0.87485829431589        3.20031560455901
C           -1.56541433723320        0.92910264980610        2.24713747550140
C           -1.66759088037083        1.89985512636574        1.25881221754285
N           -0.80706241064978        2.18269288619014        0.22645501868110
C            0.34928996258161        1.45135173575784       -0.06791692238742
C            0.27200362215385        0.08734027629441       -0.21813235224197
C            1.40460098210690       -0.67085950038406       -0.51715505038681
C            2.64494485663456       -0.03934121216601       -0.61002733293180
C            2.77330001183316        1.31598446919666       -0.41134200404653
N            4.04648664607985        1.89448307919013       -0.47160025194041
C            4.67894866585616        2.61478245497573        0.51897435736766
C            4.18229875951256        3.10741092013353        1.71744438735245
C            5.05823880771138        3.77233247862875        2.55545973999244
C            6.40010460096812        3.94508874415859        2.21823146070372
C            6.90693848569685        3.45377906521449        1.02985694530885
C            6.04618673967426        2.77941316226755        0.17384529916259
C            6.22863549298393        2.13220222939882       -1.09045030092068
C            7.34709628032367        1.88558372734644       -1.89327040188717
O            8.56880441519190        2.31626909812629       -1.45660548121867
C            9.66296019472450        1.42528954970351       -1.56344751769777
C            9.89631840166454        0.64775832955832       -0.25722692659550
C            8.64480577974597       -0.03884679233725        0.29659544432697
C            8.09848751660192       -1.15932300487860       -0.59210890320483
C            6.62812461947087       -1.46633404251885       -0.31114914462738
C            6.38595155556249       -2.07181350057665        1.07534892501812
N            4.98460220818597       -2.27604483851882        1.32547801645003
C            4.15359001579681       -1.42291534143049        2.01186984773486
C            4.43442439609054       -0.21708557798398        2.64020345327169
C            3.40325037882869        0.42120315504004        3.30106201271569
C            2.11232297958818       -0.10338664148069        3.32181539677301
C            1.82110484623375       -1.29647424997214        2.69186843179030
C            2.84608051326764       -1.96693992053380        2.03933537078235
C            2.91069783203460       -3.20388267386284        1.31836397289760
C            1.96269864395771       -4.19282154946615        1.03107601619730
O            0.70119863128820       -3.99175172973070        1.50252457588870
C           -0.19675156156004       -5.07900562494598        1.50507709125415
C           -0.81978025132832       -5.40822241695465        0.17126384916247
C           -0.74691052935245       -4.53939264207794       -0.90814857065795
C           -1.36878287387989       -4.85284452853720       -2.09912896908669
C           -2.09907017630296       -6.03349619078291       -2.24530866627721
C           -2.77669922421315       -6.29853685281428       -3.50466574572588
C           -3.66723425217188       -7.25864090619308       -3.73603079867450
C           -2.15159316825061       -6.90901033297931       -1.15742998216161
C           -1.52094644708651       -6.60044654557665        0.02733985592042
C            2.37739367679374       -5.29920095264658        0.30093229705128
C            3.69752704891807       -5.41937086466823       -0.12351626356680
C            4.65177116145537       -4.46241606524447        0.15876970588502
C            4.24699900660593       -3.34976195937521        0.88673695703119
C            7.14190525360530        1.23505243997101       -3.10707008593980
C            5.87593774696289        0.80556169609239       -3.49416453166562
C            4.77137271784861        0.97135018728684       -2.67722281574653
C            4.96281850212861        1.62116196679214       -1.46626645295678
C            1.61601120883505        2.13332756308076       -0.15794495625955
C            1.71595699579280        3.50040402698310       -0.00324929724706
N            1.80244954121808        4.65251404954270        0.12461578867295
C           -3.94587330771274       -3.56521081679310       -0.43938204903888
C           -4.64614119610614       -4.71399136677606       -0.73619048007115
H           -6.20530295041145       -8.88615382759115        0.20567526577388
H           -5.25239080221807       -8.12339297748733        1.56237814856470
H           -5.99258628166960       -6.89372392448139       -1.14134541949055
H           -4.56508747864828       -6.18620409941219        2.30244973125512
H           -3.35360546535512       -4.13300886708121        2.83350103256489
H           -1.58622754017657       -2.32483687346262        0.91102485639137
H           -2.70119794075304       -1.86063260969992        2.21067089842259
H           -4.89452157249588       -1.56317949618516        2.19647417153000
H           -6.98096883720099       -0.36413732716222        2.42499968122866
H           -7.59905720494064        1.46532849060731        0.90220816364817
H           -2.02379581376645        0.14526691897677       -1.80332864999751
H           -1.42477872054567        1.49207323427663       -3.78523683719716
H           -2.92798916657396        3.24093241708449       -4.61005082663155
H           -5.08030258600220        3.68718641770909       -3.50953177280968
H           -7.92930709568149        2.47911805880151       -1.08716798878691
H           -7.21622807530207        2.86990246538508       -2.65899593395452
H           -6.03180722506405        4.81672374505680       -1.49917861377493
H           -7.77586555753456        4.96631099323681       -1.74842909210107
H           -6.41822115847352        4.17215490663588        0.86227399919172
H           -8.16184203569962        4.21559076866002        0.59185307692313
H           -7.58570872296027        6.73342600703129       -0.20220249608472
H           -7.97264051842363        6.32139615894191        1.46201930966273
H           -6.04418460235474        7.80367867631057        1.34213714201638
H           -5.62726614930916        6.25830007381949        2.08834185011101
H           -3.95833918625782        7.29054977262848        0.39504619128552
H           -5.08966848729710        6.72357930765925       -0.85642833904872
H           -3.04075935567466        6.41615151043550       -1.80004287619719
H           -1.05557777258024        5.55804610044851       -2.90167250754010
H            0.11298098708154        3.55175418767389       -2.07741415244008
H           -4.54873927307050        3.45262764844300        2.21138886426531
H           -4.40704532310790        1.67949714310748        3.93128227638691
H           -2.50827166465988        0.13653339303686        3.98755588710557
H           -0.72658951687002        0.25082582624846        2.26973906778632
H           -0.69179819189091       -0.38866820581799       -0.13135125792264
H            1.33358393327602       -1.73634891514858       -0.65419924747242
H            3.52835863338972       -0.63002629773150       -0.80287071792753
H            3.14687425828881        2.98268512627265        1.98654961152921
H            4.69346888435161        4.17067407091979        3.49034466014504
H            7.05096085801775        4.47450474369673        2.89860718817365
H            7.94252675820003        3.58670470863564        0.75849443429710
H            9.52692491975679        0.72876513375658       -2.39510639651801
H           10.54209902154616        2.04212676330816       -1.77504312437789
H           10.68203779660407       -0.08806092983711       -0.44069328789297
H           10.25666092834736        1.34873764447551        0.49785662143841
H            7.87351181183393        0.71881753241832        0.44013769027412
H            8.89279420294659       -0.44298016234190        1.28049767913302
H            8.69899895368436       -2.06261188504853       -0.46035613703240
H            8.17205469795334       -0.86470123788129       -1.63944292828191
H            6.05198629314889       -0.54295065583494       -0.39565861554050
H            6.25214325478851       -2.16019688832681       -1.06690711843430
H            6.90345503401254       -3.03309955788169        1.15853640969960
H            6.77525005482553       -1.40592179658725        1.84756886834609
H            5.42201015914954        0.21961946149865        2.62219701646700
H            3.60559389279047        1.34724522642510        3.81690714027636
H            1.33583010300839        0.43612558084606        3.84466584798361
H            0.82845122242324       -1.71887829892000        2.70490913519088
H           -0.99333919759727       -4.77453637074201        2.19517656955343
H            0.28982697491390       -5.97161499856382        1.92374644945179
H           -0.19829398017866       -3.61372247759525       -0.81443175944182
H           -1.30406916052149       -4.16329032390025       -2.92905597300275
H           -2.52580527885622       -5.61305857949995       -4.30574592969741
H           -3.97664773313239       -7.95770060445445       -2.97812354424177
H           -4.12847279227609       -7.37409418330505       -4.70210450157486
H           -2.69020444584953       -7.83979750100811       -1.23955095821632
H           -1.57532152214291       -7.28740123649636        0.86027963062460
H            1.67526827681747       -6.07504420371432        0.03927781687764
H            3.97720534862826       -6.29406151423082       -0.69170721347514
H            5.67005435347588       -4.58309105400720       -0.17579739509426
H            7.97217861231577        1.07306821896769       -3.77870244935434
H            5.75979013793563        0.32393778376494       -4.45302854598995
H            3.79749598585709        0.61589987544750       -2.97439339931197
H           -3.77180045851214       -2.82285857167182       -1.20442777696293
H           -5.01544508295101       -4.86876813908673       -1.73993825446778
