167
 energy: -250.260584614540 gnorm: 0.000033851112 xtb: 6.7.1 (edcfbbe)
C           -5.52991319460789       -8.07868872654466        0.59396174805538
C           -5.53855935779713       -6.92828612387486       -0.06791057223148
C           -4.83285401767947       -5.71039008330988        0.31002901439259
C           -4.31874871490255       -5.49907436490342        1.58916789677277
C           -3.62932182132307       -4.34242401610189        1.89087450088600
C           -3.41750772208244       -3.37072134192465        0.92091998141319
C           -2.59595591569084       -2.14384472311096        1.22473387294342
O           -2.91171059658844       -1.03786297505010        0.40815255818673
C           -4.13057727855174       -0.44268697720709        0.57314966523969
C           -5.05162294491348       -0.77469158064993        1.55364587549142
C           -6.25732047004204       -0.08812194180379        1.66378754186242
C           -6.60167098750696        0.93289727744899        0.80464905985501
C           -5.69938581393378        1.25576271519367       -0.20093635996919
C           -4.46367723657773        0.58080647684127       -0.32153663233650
C           -3.80035555578745        1.14642181679415       -1.46017106183871
C           -2.60353639627612        0.87736319828101       -2.10951113308297
C           -2.26746518917302        1.62415564849348       -3.22019829368304
C           -3.11190369140119        2.62392262599118       -3.69429419984367
C           -4.32101964597898        2.89185035806851       -3.08292462765181
C           -4.66554441468179        2.14527596525562       -1.96517863670675
N           -5.80793210835984        2.19001473346331       -1.20197006881682
C           -6.99361413693838        2.91764990754387       -1.56850731694234
C           -6.94622655234471        4.40058365923915       -1.18584603975249
C           -7.20582891233060        4.64051880076818        0.29974557982676
C           -7.27605116554350        6.13271720375976        0.65398451292638
C           -5.96641927641693        6.73615224093101        1.16568523070873
C           -4.78083427899532        6.57627959845266        0.21646173614613
O           -4.25610737458221        5.27970298018202        0.41053159885491
C           -3.12541832734978        4.91082568691884       -0.24689404587737
C           -2.58042439831862        5.56279832948639       -1.34228733969099
C           -1.43143839673736        5.07826328273747       -1.96086694344254
C           -0.76170769236167        3.96548040104682       -1.49867964262801
C           -1.27192266350136        3.33822714159164       -0.37117710425581
C           -2.46694335751088        3.77296118212397        0.23245114577206
C           -2.73835015794616        2.87872675170814        1.32111509978445
C           -3.74479858652994        2.80510397839547        2.27425787273786
C           -3.67454435159293        1.81622157328086        3.23426883276677
C           -2.60826559400112        0.92151620650859        3.26484095815877
C           -1.59772141454480        0.97134236282553        2.32305063014173
C           -1.68482163175287        1.94033115983150        1.33637787600920
N           -0.80163015042510        2.23176796784126        0.31209107609433
C            0.34181022553592        1.49117158432547        0.02055982875232
C            0.24350316701973        0.11137025391300       -0.12660990795672
C            1.35786941734480       -0.63836584540571       -0.44757382058401
C            2.59389314840950       -0.03444908901526       -0.58555619822358
C            2.73033575628733        1.33443615758247       -0.39186849971810
N            4.00285396387470        1.91062935835904       -0.46457888924006
C            4.65303174705027        2.58446026948634        0.55780480139985
C            4.17042529970823        3.02999582974448        1.77747606551961
C            5.05837882641814        3.65699010450053        2.63129848802859
C            6.39695969959726        3.83411443205982        2.29135555843470
C            6.88834778357051        3.37878931361520        1.08452994161843
C            6.01321425844387        2.74392974850417        0.21279844554478
C            6.18490421772070        2.13581312176506       -1.07663922910678
C            7.30072016489884        1.92433508349012       -1.89290178263149
O            8.52052147400309        2.36074523144994       -1.45118319452600
C            9.62330780340309        1.48362497969185       -1.58072193888017
C            9.87527143231412        0.68261722916571       -0.29225161459093
C            8.63633802792541       -0.03000286992605        0.25669346965132
C            8.09456330281882       -1.13641059495050       -0.65213439710305
C            6.62722474924285       -1.45816135290928       -0.37196283669523
C            6.39435469597833       -2.09863428997211        1.00018154923874
N            4.99429500744959       -2.31170255360560        1.25249849162588
C            4.16735676492424       -1.48581941963651        1.97814924416518
C            4.45143502534490       -0.30512661731642        2.64977327058105
C            3.42337811070555        0.31007916587679        3.33766781288000
C            2.13221764391571       -0.21284388570026        3.34419225505787
C            1.83750133756683       -1.38053883997068        2.67056242134401
C            2.85944368061300       -2.02771652112890        1.98876621169646
C            2.91747559837670       -3.23215852104437        1.21460105411257
C            1.96548927040611       -4.20351564740255        0.88300145734845
O            0.69943850818257       -4.01507857927000        1.36139570419311
C           -0.18459471519082       -5.11220609908282        1.35258373736557
C           -0.84417765229139       -5.39826587446150        0.02637670926048
C           -0.81252216804002       -4.48747813200362       -1.01866450200323
C           -1.46511492560505       -4.76097871986750       -2.20410038335584
C           -2.18516277354441       -5.94269075649703       -2.37332525882817
C           -2.90058852010553       -6.16816090334006       -3.62326031182053
C           -3.84313450538986       -7.07917079077298       -3.83191880338940
C           -2.19641488020295       -6.86117852849758       -1.32280950811512
C           -1.53467941436103       -6.59248555142997       -0.14428287628265
C            2.37164940627423       -5.27631140411576        0.10488230460745
C            3.69280554588146       -5.38527277111432       -0.32431167160204
C            4.65067452652415       -4.44691003264440       -0.00211818500106
C            4.25256441959287       -3.36400980566399        0.77348896498928
C            7.09482004839079        1.30255707291701       -3.11763288005020
C            5.82980953960519        0.87230932270059       -3.50411485859953
C            4.72776740777578        1.01681244164772       -2.68539588193893
C            4.92148639560357        1.64110833154381       -1.46089962667015
C            1.59644713156831        2.11389159089210       -0.10637492448928
C            1.72615043594917        3.51108096670582        0.05941015975892
N            1.84450612247586        4.64429885876837        0.19195982625884
C           -3.94675885061410       -3.56273052794685       -0.34757098301348
C           -4.65456581777116       -4.70864924641629       -0.64362428543910
H           -6.07113806447806       -8.93800441749831        0.23618879826069
H           -4.98163995998408       -8.21560407389361        1.51048614763876
H           -6.08739689769697       -6.85908490092420       -0.99952918627909
H           -4.47303358858585       -6.23894747581310        2.35963657015149
H           -3.25150577884079       -4.18888166332730        2.89318348501839
H           -1.54267268700329       -2.36172655028050        1.00767505831378
H           -2.67158236209465       -1.87555737664061        2.28679676405973
H           -4.85524581559253       -1.57459786722014        2.24858683999166
H           -6.94110457547940       -0.37295251337809        2.44989162591286
H           -7.53999610027038        1.45308108942010        0.91552645081450
H           -1.95991895007675        0.08829275428981       -1.75756949268077
H           -1.33696099476979        1.43119057649932       -3.73428618585858
H           -2.81953067673561        3.19587410518798       -4.56263901420849
H           -4.97344174895948        3.65871155317830       -3.47267852708388
H           -7.85469745383382        2.43774384283789       -1.09678985564359
H           -7.11568727236638        2.83336572853212       -2.65516101865217
H           -5.96822631668700        4.78948688520649       -1.46305201197667
H           -7.70415814618916        4.92820726980498       -1.77115782227321
H           -6.42402786436841        4.15732686713769        0.88452793555458
H           -8.15900744735119        4.17194108250852        0.55887015758833
H           -7.61027456456378        6.69435407658169       -0.22203470538361
H           -8.02492827472750        6.28011367049116        1.43535161097632
H           -6.12321719675008        7.80080823560814        1.34955986636210
H           -5.69330226912855        6.26652863903485        2.11220279151728
H           -4.00637003183671        7.32092729754140        0.45009059463016
H           -5.10164259386671        6.73072193906908       -0.82220701054419
H           -3.04519545011269        6.45217058201724       -1.73829505453775
H           -1.05274540580739        5.59932287198183       -2.82706455613205
H            0.12339628783010        3.60739845704633       -1.99937585896277
H           -4.55401853364252        3.51695021721602        2.26203291891407
H           -4.44995364288416        1.73824710512021        3.98183858645772
H           -2.56690794920786        0.17710108952984        4.04773639100688
H           -0.76532084648062        0.28476904788953        2.36091377990507
H           -0.72274544504973       -0.35053187234411       -0.00766797381645
H            1.27406321019696       -1.70549731972689       -0.58069093284294
H            3.46675470630629       -0.62595199241958       -0.81325479334861
H            3.13872097119942        2.89554266300527        2.05979992186165
H            4.70294931834513        4.02046307311342        3.58417581266369
H            7.05660340896664        4.33407355456533        2.98503360519501
H            7.92327995606514        3.50754509123934        0.80915203134601
H            9.49000521670218        0.80249294098691       -2.42547964974358
H           10.49449424369443        2.11393001076593       -1.78588242751072
H           10.66825073401756       -0.03991399007618       -0.49634758238254
H           10.23328672583017        1.37204764893770        0.47455187227910
H            7.85817923520580        0.71576214143950        0.42286795486240
H            8.89656302599098       -0.45266892908501        1.22961800438786
H            8.70107255794271       -2.03834970664281       -0.54036097971436
H            8.16272467541036       -0.82039752552320       -1.69350671888544
H            6.04647344754673       -0.53557954699296       -0.43158882080117
H            6.25158926634888       -2.13518449387521       -1.14309026931437
H            6.91455881363809       -3.06049232892375        1.05656080287871
H            6.78657141083854       -1.45179111546338        1.78676943431775
H            5.43937812797390        0.13093291485868        2.64503731583452
H            3.62945884616124        1.21639654882981        3.88628033712839
H            1.35813922440274        0.30642036832624        3.89068474296604
H            0.84361433801880       -1.80070647196435        2.67264203764074
H           -0.96527326822235       -4.84553454347502        2.07582118056238
H            0.32411427375737       -6.01373711907048        1.72209278268488
H           -0.27245376827963       -3.55944244761068       -0.90321788816679
H           -1.43329377855309       -4.03841784298957       -3.00725203100850
H           -2.63350444976306       -5.49199573265929       -4.42665246879402
H           -4.16977714330956       -7.76029160421599       -3.06448410724828
H           -4.33350872663080       -7.17138309048791       -4.78604958259661
H           -2.72368963692807       -7.79614394915172       -1.42947292967931
H           -1.55544152731916       -7.31339196862433        0.66073173356059
H            1.66582891858978       -6.03689387949299       -0.19021555097984
H            3.96747903666306       -6.23668129068640       -0.92920346315188
H            5.66854786948591       -4.55833004711854       -0.34101101380927
H            7.92195703355168        1.15768479132905       -3.79679934468944
H            5.71336648933868        0.40502351371624       -4.47056627520031
H            3.75520768954736        0.66296688129673       -2.98981483060621
H           -3.80212136686192       -2.80456872955747       -1.10277724489289
H           -5.05799401675738       -4.84423696528903       -1.63691636384765
