  70
       -106.66749601
 C         -8.2689979760       -2.4798445466       -1.4117298725
 C         -8.3044831644       -1.1134557539       -1.6349457402
 C         -7.2982717892       -0.3006395423       -1.1473464826
 C         -6.2494095259       -0.8538513169       -0.4184022749
 N         -5.2301730831       -0.0320839439        0.0824355553
 C         -5.4109021845        1.1270928987        0.8111540540
 C         -6.5840370701        1.7137139984        1.2641043258
 C         -6.4799705531        2.8747112358        2.0058780520
 C         -5.2421399204        3.4413325510        2.3023173469
 C         -4.0704663420        2.8493508452        1.8757275405
 C         -4.1497265957        1.6813216075        1.1292108771
 C         -3.1645792775        0.8089510293        0.5546712995
 C         -1.7785437382        0.8375313814        0.5127157675
 C         -1.1046285829       -0.1712302000       -0.1593836203
 C          0.3725985119       -0.1663691420       -0.2189207853
 C          1.1029682639       -1.1485983170        0.4648146209
 C          0.4613689701       -2.1426175858        1.2497650682
 C          1.1759905018       -3.1061933622        1.8915149794
 C          2.5804525402       -3.1401061609        1.7819518956
 C          3.2358399468       -2.1919533420        1.0588925802
 C          2.5310528226       -1.1528114787        0.3959067653
 C          3.1960208332       -0.1530477619       -0.3283080128
 C          4.6723673060       -0.1456566984       -0.3906592322
 C          5.3211705617       -0.4223278948       -1.6133842067
 C          6.6835830861       -0.4278204105       -1.6945710195
 C          7.4782453698       -0.1539373221       -0.5612539069
 C          8.8871820240       -0.1522484604       -0.6116185186
 C          9.6253853314        0.1154654665        0.5069838774
 C          8.9883949798        0.3939961419        1.7267173455
 C          7.6244307185        0.4005291499        1.8079337580
 C          6.8337452436        0.1278991287        0.6717659146
 C          5.4259448938        0.1231563389        0.7248567306
 C          2.4666514263        0.8395268777       -0.9982553116
 C          3.1103653884        1.8853856344       -1.7109262057
 C          2.3937398153        2.8299604572       -2.3783657021
 C          0.9853562247        2.7848870338       -2.3785915472
 C          0.3297094254        1.8136816432       -1.6871086239
 C          1.0377907860        0.8231503733       -0.9569364892
 C         -1.8236306377       -1.1895349785       -0.7969157932
 C         -3.2031362775       -1.2336263816       -0.7729318074
 C         -3.8743994137       -0.2373264953       -0.0782295006
 C         -6.2179309592       -2.2265295987       -0.1905144647
 C         -7.2230460109       -3.0326699353       -0.6916540673
 H         -9.0541340521       -3.1120348740       -1.7981795412
 H         -9.1158803549       -0.6784499793       -2.1996711188
 H         -7.3104103323        0.7619074388       -1.3390369760
 H         -7.5475047461        1.2735099623        1.0554029489
 H         -7.3790952894        3.3518811456        2.3672590570
 H         -5.2039080152        4.3513628311        2.8824341658
 H         -3.1097599368        3.2779761301        2.1183729662
 H         -1.2284535870        1.6304382671        0.9974267882
 H         -0.6151269646       -2.1168118501        1.3316874312
 H          0.6732123320       -3.8552341745        2.4858639530
 H          3.1318348781       -3.9238166730        2.2808295707
 H          4.3124080058       -2.2188669807        0.9772966750
 H          4.7166189276       -0.6371699919       -2.4830630266
 H          7.1749030495       -0.6439276162       -2.6329983128
 H          9.3727846857       -0.3675124926       -1.5532206988
 H         10.7047404271        0.1148499885        0.4614997162
 H          9.5877639634        0.6038226593        2.6006897248
 H          7.1288633955        0.6142233165        2.7445020302
 H          4.9372738585        0.3417660495        1.6643987793
 H          4.1898276388        1.9212314762       -1.7114603239
 H          2.8984883152        3.6195469564       -2.9157182521
 H          0.4317294225        3.5313019125       -2.9294184117
 H         -0.7497000156        1.7809042019       -1.6860171374
 H         -1.2758622487       -1.9521673360       -1.3314231652
 H         -3.7387933266       -2.0145246383       -1.2913508095
 H         -5.4131932731       -2.6512838988        0.3908166325
 H         -7.1935742117       -4.0971950679       -0.5115231042
  70
       -106.66730755
 C         -8.1200663541       -2.6191750002       -1.5614589981
 C         -8.1820177800       -1.2589113252       -1.8148679697
 C         -7.2289869206       -0.4069599802       -1.2884366731
 C         -6.2073804311       -0.9150116043       -0.4913169683
 N         -5.2373211222       -0.0559693309        0.0440574587
 C         -5.4812627271        1.1094732050        0.7429181048
 C         -6.6894217646        1.6724528859        1.1284302640
 C         -6.6507075542        2.8485632859        1.8524169824
 C         -5.4430806626        3.4525200904        2.1962178703
 C         -4.2374773035        2.8847867919        1.8361762293
 C         -4.2505443073        1.7022695967        1.1083937365
 C         -3.2173705070        0.8485930506        0.5923051001
 C         -1.8313433868        0.9151945722        0.6065451150
 C         -1.1040265701       -0.0814906878       -0.0264830218
 C          0.3735369882       -0.0486928145       -0.0522186609
 C          1.1021860842       -1.0353392777        0.6277997677
 C          0.4581505166       -2.0154779925        1.4280315394
 C          1.1680380389       -2.9861765901        2.0643923626
 C          2.5695116271       -3.0436943575        1.9303467424
 C          3.2273739626       -2.1113489004        1.1890855718
 C          2.5286376866       -1.0627995140        0.5345558261
 C          3.1948090790       -0.0795805691       -0.2109662884
 C          4.6638153714       -0.1314128388       -0.3611421826
 C          5.2107292526       -0.4255254158       -1.6294429462
 C          6.5614374085       -0.4987301895       -1.8077567080
 C          7.4466924109       -0.2789465816       -0.7311295518
 C          8.8465235048       -0.3499381259       -0.8817071527
 C          9.6751451714       -0.1343970562        0.1836896999
 C          9.1409679889        0.1628564129        1.4475377935
 C          7.7882600417        0.2402983863        1.6253267115
 C          6.9057249084        0.0221467935        0.5464076235
 C          5.5063303162        0.0881401199        0.6999355779
 C          2.4697323164        0.9381612089       -0.8472924635
 C          3.1202785121        1.9829509249       -1.5553553117
 C          2.4100112738        2.9524936709       -2.1931746656
 C          1.0013369214        2.9312082825       -2.1709182453
 C          0.3398422107        1.9584086576       -1.4870027102
 C          1.0416212972        0.9453579321       -0.7819749318
 C         -1.7692871861       -1.1290340322       -0.6764521426
 C         -3.1461097209       -1.2130999504       -0.7056761035
 C         -3.8711545810       -0.2254891689       -0.0541451911
 C         -6.1500296978       -2.2814390977       -0.2323860848
 C         -7.1017424803       -3.1267501172       -0.7717877732
 H         -8.8633920897       -3.2818377613       -1.9782407985
 H         -8.9724625049       -0.8593899239       -2.4329284641
 H         -7.2610827496        0.6511436473       -1.5016757939
 H         -7.6298564554        1.2034507061        0.8807579887
 H         -7.5778756886        3.3086505507        2.1611596332
 H         -5.4558190379        4.3732718738        2.7602779884
 H         -3.3010675307        3.3435911342        2.1158789146
 H         -1.3237575327        1.7283120151        1.1041289123
 H         -0.6159839482       -1.9703383125        1.5300799927
 H          0.6635543101       -3.7224567769        2.6730373162
 H          3.1168593137       -3.8328784416        2.4250265500
 H          4.3015748098       -2.1572130376        1.0887214713
 H          4.5356704739       -0.5983651395       -2.4556130346
 H          6.9735861260       -0.7279956106       -2.7805334007
 H          9.2519760237       -0.5800788537       -1.8570919056
 H         10.7470019138       -0.1916578176        0.0617983527
 H          9.8107503927        0.3308324363        2.2784825496
 H          7.3723891332        0.4678511412        2.5968330803
 H          5.0976093409        0.3233939959        1.6731734120
 H          4.2001384643        1.9995304436       -1.5726184997
 H          2.9197793450        3.7429539557       -2.7245252323
 H          0.4519303945        3.6968406814       -2.6990963024
 H         -0.7396930125        1.9445231161       -1.4704077680
 H         -1.1790651328       -1.8823072944       -1.1780366914
 H         -3.6392652712       -2.0162298490       -1.2322306385
 H         -5.3666623075       -2.6706227067        0.4008156375
 H         -7.0522714300       -4.1861806178       -0.5678274384
  70
       -106.66728845
 C         -8.2835470360       -2.2649754611       -1.6784560679
 C         -7.2907175086       -1.6981491560       -2.4602236693
 C         -6.2792344349       -0.9593262528       -1.8754349670
 C         -6.2506562669       -0.7911781526       -0.4939953223
 N         -5.2266165067       -0.0415293409        0.1015994842
 C         -5.3991884617        0.9971831053        0.9947594836
 C         -6.5703905237        1.5550074463        1.4870813209
 C         -6.4600260388        2.6180386723        2.3627250459
 C         -5.2182784450        3.1262221104        2.7386129744
 C         -4.0502913480        2.5908889050        2.2341849955
 C         -4.1357033291        1.5216360402        1.3523370514
 C         -3.1572886738        0.7510774688        0.6376376873
 C         -1.7708283760        0.7795528785        0.5918245429
 C         -1.1062918726       -0.1487309670       -0.1940656977
 C          0.3735127390       -0.1514568002       -0.2520827096
 C          1.0943452277       -1.0954054042        0.4906382182
 C          0.4396913639       -2.0497809456        1.3128951909
 C          1.1456987463       -2.9740520201        2.0186565982
 C          2.5525809487       -3.0046586539        1.9400776084
 C          3.2187974999       -2.0987764825        1.1737905306
 C          2.5228501134       -1.1046611363        0.4365887476
 C          3.1953589237       -0.1574405956       -0.3485075745
 C          4.6725046452       -0.1595619126       -0.4032889849
 C          5.3257324795       -0.5524423822       -1.5912301712
 C          6.6883946868       -0.5656893582       -1.6660732549
 C          7.4784938180       -0.1836467388       -0.5611987675
 C          8.8875661962       -0.1847995151       -0.6066865707
 C          9.6216037462        0.1913758873        0.4831418994
 C          8.9800149612        0.5847981039        1.6681949277
 C          7.6158222961        0.5954713359        1.7442411387
 C          6.8293495644        0.2136253064        0.6370158345
 C          5.4212742517        0.2133955074        0.6849375976
 C          2.4738839623        0.7902465830       -1.0881185374
 C          3.1231443439        1.7782351978       -1.8744812383
 C          2.4106582413        2.6830919172       -2.5992126742
 C          1.0014178455        2.6598307018       -2.5809953844
 C          0.3405060799        1.7434556842       -1.8231317010
 C          1.0449932397        0.7878575476       -1.0447039000
 C         -1.8292488420       -1.1017912169       -0.9201594604
 C         -3.2090372206       -1.1421552497       -0.8963626681
 C         -3.8738534073       -0.2006214945       -0.1236881138
 C         -7.2448403368       -1.3676067681        0.2910719741
 C         -8.2580924029       -2.0961074814       -0.3040081385
 H         -9.0748017625       -2.8368878425       -2.1390828483
 H         -7.3083464699       -1.8243200409       -3.5327215000
 H         -5.5157374559       -0.4971984873       -2.4832900407
 H         -7.5378829918        1.1799656152        1.1890327706
 H         -7.3573879640        3.0686540676        2.7610616803
 H         -5.1748941333        3.9551091559        3.4290810973
 H         -3.0880879249        2.9942255000        2.5118292336
 H         -1.2138384599        1.5050625708        1.1658899788
 H         -0.6389009405       -2.0271283403        1.3658136638
 H          0.6343948656       -3.6949055915        2.6399744168
 H          3.0969803505       -3.7542888434        2.4956843704
 H          4.2967346848       -2.1261578880        1.1127768795
 H          4.7242067865       -0.8446218947       -2.4399695478
 H          7.1833593236       -0.8711116506       -2.5772894156
 H          9.3765328619       -0.4884386343       -1.5216712037
 H         10.7011058275        0.1885653346        0.4413925670
 H          9.5760493443        0.8808999612        2.5193600991
 H          7.1168255710        0.8994244262        2.6538515052
 H          4.9286789418        0.5203021504        1.5974859489
 H          4.2029744650        1.8015996113       -1.8856071973
 H          2.9196475994        3.4272100281       -3.1944348105
 H          0.4530583068        3.3803887607       -3.1701465941
 H         -0.7393558630        1.7267218035       -1.8008292255
 H         -1.2844119390       -1.8225951878       -1.5125276949
 H         -3.7489425631       -1.8940659454       -1.4519959052
 H         -7.2092337579       -1.2524405520        1.3641111378
 H         -9.0267301481       -2.5418410994        0.3097983328
  70
       -106.66720778
 C         -8.2805843700       -1.9537418241       -2.0282639438
 C         -8.2984525882       -0.5749557023       -1.8983888053
 C         -7.2880743019        0.0744980818       -1.2137901846
 C         -6.2526818883       -0.6593853606       -0.6424182830
 N         -5.2289933008       -0.0063062584        0.0581174081
 C         -5.4019593849        0.9206509298        1.0667224505
 C         -6.5723549263        1.3903088117        1.6455804178
 C         -6.4611058567        2.3129667216        2.6679468580
 C         -5.2189149599        2.7561662109        3.1172551325
 C         -4.0505201713        2.2742989442        2.5624289128
 C         -4.1368024678        1.3470485185        1.5324261218
 C         -3.1572024959        0.6414913358        0.7551762214
 C         -1.7698071123        0.6517647004        0.7355895680
 C         -1.1063628132       -0.1450376919       -0.1838209670
 C          0.3744203961       -0.1560211948       -0.2305290448
 C          1.0938648530       -0.9500321855        0.6709339163
 C          0.4356907930       -1.7574946897        1.6355193841
 C          1.1390499789       -2.5460815657        2.4922261319
 C          2.5464594877       -2.5849487179        2.4273014353
 C          3.2152289612       -1.8253301073        1.5176145888
 C          2.5224760595       -0.9722226881        0.6184565690
 C          3.1962725193       -0.1831997116       -0.3252384150
 C          4.6726133510       -0.1999340288       -0.3821721165
 C          5.3214940509       -0.7624943593       -1.5025377239
 C          6.6838987629       -0.7935685035       -1.5771380561
 C          7.4788570331       -0.2624026549       -0.5394254863
 C          8.8878064420       -0.2783225047       -0.5862642141
 C          9.6263346656        0.2434139010        0.4385471754
 C          8.9895192403        0.8048980275        1.5565543665
 C          7.6254906525        0.8361418271        1.6313524721
 C          6.8344655010        0.3061124611        0.5904160893
 C          5.4265520585        0.3213303773        0.6397863238
 C          2.4752727297        0.6194718659       -1.2213123614
 C          3.1238513458        1.4577342560       -2.1660612123
 C          2.4111844191        2.2308437751       -3.0299970046
 C          1.0022095776        2.2229430814       -2.9981170863
 C          0.3416948994        1.4487627301       -2.0951961733
 C          1.0466007693        0.6260727950       -1.1778558294
 C         -1.8310016840       -0.9358347021       -1.0823342813
 C         -3.2112947491       -0.9663162871       -1.0756991991
 C         -3.8743389825       -0.1841351061       -0.1408898207
 C         -6.2384494163       -2.0454198754       -0.7699785716
 C         -7.2478032685       -2.6849460474       -1.4651918721
 H         -9.0691050975       -2.4570578127       -2.5671408862
 H         -9.0993091263       -0.0003810532       -2.3397076187
 H         -7.2865961314        1.1510101392       -1.1293726980
 H         -7.5393523840        1.0397332116        1.3175612644
 H         -7.3578200223        2.6964065959        3.1320150340
 H         -5.1749855305        3.4805589633        3.9168946826
 H         -3.0870041322        2.6051504018        2.9197721864
 H         -1.2121699915        1.2753358332        1.4184349457
 H         -0.6436575938       -1.7346932154        1.6713314695
 H          0.6258403842       -3.1553445281        3.2218363327
 H          3.0893766844       -3.2285157441        3.1042454946
 H          4.2930202452       -1.8668890050        1.4634351057
 H          4.7168346572       -1.1752747501       -2.2975970760
 H          7.1750842739       -1.2283640801       -2.4364658823
 H          9.3732143333       -0.7124507994       -1.4489586128
 H         10.7057648828        0.2276525870        0.3965074616
 H          9.5891204691        1.2124875170        2.3575525815
 H          7.1302980458        1.2671740343        2.4899950853
 H          4.9382992618        0.7607818615        1.4986052412
 H          4.2035944207        1.4781924774       -2.1834190754
 H          2.9204531940        2.8630542716       -3.7427578829
 H          0.4536930023        2.8445457797       -3.6907037320
 H         -0.7378229217        1.4504416260       -2.0568382388
 H         -1.2874546472       -1.5351223506       -1.7983219003
 H         -3.7534875842       -1.5719436581       -1.7862211060
 H         -5.4433260029       -2.6138592607       -0.3111048608
 H         -7.2322213445       -3.7606606233       -1.5603418734
  70
       -106.66710138
 C         -8.3030376069       -1.9692169492       -1.9664082823
 C         -8.3061451668       -0.5866834924       -1.8844189986
 C         -7.2874874375        0.0757265749       -1.2251561990
 C         -6.2586135976       -0.6484470600       -0.6296199940
 N         -5.2271308952        0.0187488707        0.0453736045
 C         -5.3887050046        0.9932896019        1.0104020397
 C         -6.5527942215        1.4958114354        1.5741760207
 C         -6.4298009294        2.4592039263        2.5570596461
 C         -5.1823650416        2.9119068473        2.9812853000
 C         -4.0200603411        2.3986138298        2.4418992734
 C         -4.1184912272        1.4288067894        1.4530286690
 C         -3.1475873506        0.6767694202        0.7090671255
 C         -1.7601900924        0.6688281113        0.6907431199
 C         -1.1064265533       -0.1891069021       -0.1789383465
 C          0.3747210843       -0.2287300336       -0.2099184025
 C          1.0597293538       -1.1676341538        0.5707402210
 C          0.3695257883       -2.0923829613        1.3976142349
 C          1.0446382157       -2.9922939055        2.1624528186
 C          2.4541044389       -3.0174615138        2.1542672647
 C          3.1530068008       -2.1466296461        1.3763591319
 C          2.4884864048       -1.2005391392        0.5523215084
 C          3.1953544123       -0.2958223564       -0.2512066988
 C          4.6737242251       -0.3288527587       -0.2671918628
 C          5.3421363256       -1.3820657832       -0.9270538979
 C          6.7058763791       -1.4289851456       -0.9597997915
 C          7.4806338955       -0.4323902345       -0.3292114372
 C          8.8903147823       -0.4541639537       -0.3417795856
 C          9.6093267775        0.5270802382        0.2814308654
 C          8.9514711074        1.5741436116        0.9460367879
 C          7.5862874408        1.6241579631        0.9753190739
 C          6.8153316531        0.6275967769        0.3407295139
 C          5.4065964184        0.6532733847        0.3502932160
 C          2.5093776991        0.6375470240       -1.0402789139
 C          3.1916497066        1.5467305544       -1.8908301828
 C          2.5106815408        2.4421706053       -2.6563842973
 C          1.1020469176        2.4845696071       -2.6222976740
 C          0.4094590692        1.6241893224       -1.8279510613
 C          1.0804127896        0.6723527795       -1.0161102158
 C         -1.8394527346       -1.0167696545       -1.0359605189
 C         -3.2202053122       -1.0222415386       -1.0363990472
 C         -3.8744740932       -0.1839015334       -0.1450792090
 C         -6.2596840121       -2.0381698070       -0.7082989191
 C         -7.2766019215       -2.6908575973       -1.3799166098
 H         -9.0980123024       -2.4828413459       -2.4854860059
 H         -9.1022198112       -0.0191206871       -2.3435294823
 H         -7.2742201467        1.1544266310       -1.1785331425
 H         -7.5239207365        1.1387427014        1.2660196755
 H         -7.3217209765        2.8672310842        3.0093569810
 H         -5.1295230742        3.6682149022        3.7503155368
 H         -3.0525597588        2.7366232117        2.7811008756
 H         -1.1953790993        1.3203300634        1.3407967176
 H         -0.7103255733       -2.0630433393        1.4077362650
 H          0.5075991488       -3.6911499809        2.7873334507
 H          2.9738775033       -3.7319505667        2.7757152769
 H          4.2331916145       -2.1600105258        1.3781466132
 H          4.7518274898       -2.1465922149       -1.4118509449
 H          7.2133014738       -2.2346049627       -1.4718539088
 H          9.3915661362       -1.2631959137       -0.8545215791
 H         10.6892510816        0.5039732238        0.2673970820
 H          9.5362636656        2.3404786103        1.4339991471
 H          7.0744289717        2.4281774823        1.4851140872
 H          4.9005070922        1.4616106174        0.8600662390
 H          4.2707653598        1.5106522996       -1.9241072832
 H          3.0447013697        3.1257440250       -3.3004199314
 H          0.5792247938        3.2022813814       -3.2375021494
 H         -0.6703657081        1.6464107344       -1.8041503514
 H         -1.3029879372       -1.6628589398       -1.7155950929
 H         -3.7689861170       -1.6537928096       -1.7186776830
 H         -5.4706622701       -2.5992780587       -0.2301215772
 H         -7.2713724981       -3.7692755990       -1.4378829072
  70
       -106.66585689
 C         -7.8114490816       -2.8400447343       -1.8179296254
 C         -7.9180351478       -1.4904959502       -2.1103435047
 C         -7.0646863514       -0.5781649802       -1.5179706888
 C         -6.0999933278       -1.0146094419       -0.6147481407
 N         -5.2205254383       -0.0986545053       -0.0206417392
 C         -5.5665878716        1.0819479565        0.6051802405
 C         -6.8234951087        1.6110414162        0.8604954872
 C         -6.8912574051        2.8167572015        1.5316507675
 C         -5.7410111076        3.4822555088        1.9502695937
 C         -4.4885884254        2.9486719170        1.7213868594
 C         -4.3943130344        1.7374532830        1.0487927980
 C         -3.2887652707        0.9088161462        0.6551555385
 C         -1.9110655736        1.0368328273        0.7735400861
 C         -1.0966588466        0.0563479664        0.2274618773
 C          0.3777574474        0.1396635718        0.2585436192
 C          1.1099653699       -0.8541344506        0.9261243230
 C          0.4697336171       -1.8161723866        1.7505153536
 C          1.1763734754       -2.8038146992        2.3643231795
 C          2.5692351854       -2.9004713539        2.1761386990
 C          3.2239561610       -1.9873182310        1.4083293113
 C          2.5311406801       -0.9175541791        0.7830264261
 C          3.1911428138        0.0475297016        0.0086021190
 C          4.6286335509       -0.0951991338       -0.2999712450
 C          4.9849297062       -0.3807414811       -1.6373591169
 C          6.2892978900       -0.5610349427       -1.9914368849
 C          7.3182325059       -0.4644880913       -1.0308520880
 C          8.6746118544       -0.6550648975       -1.3629923713
 C          9.6473756535       -0.5586236784       -0.4077973487
 C          9.3062423643       -0.2648444791        0.9216950238
 C          7.9998105093       -0.0726698805        1.2745461019
 C          6.9714755306       -0.1678729240        0.3134818491
 C          5.6136882386        0.0129911518        0.6490503872
 C          2.4712034072        1.1087026756       -0.5600222479
 C          3.1289775886        2.1601818097       -1.2507112984
 C          2.4270787131        3.1678650733       -1.8366212970
 C          1.0192843885        3.1728322188       -1.7853697566
 C          0.3517886454        2.1914083979       -1.1194101910
 C          1.0459103764        1.1461125901       -0.4553823336
 C         -1.6683978262       -1.0427388868       -0.4289877017
 C         -3.0329964117       -1.1910758286       -0.5560081515
 C         -3.8454875570       -0.2131428710       -0.0004127651
 C         -6.0017000446       -2.3700808002       -0.3131957731
 C         -6.8520017313       -3.2759191606       -0.9192718512
 H         -8.4730584228       -3.5503119048       -2.2902844500
 H         -8.6616672042       -1.1469600772       -2.8141687520
 H         -7.1276383954        0.4714004723       -1.7637345378
 H         -7.7208077956        1.0946600078        0.5540797422
 H         -7.8580184335        3.2517733411        1.7384092891
 H         -5.8365377095        4.4248528443        2.4683924680
 H         -3.5978482629        3.4569132929        2.0589108419
 H         -1.4797199947        1.8847585343        1.2849456266
 H         -0.5980958640       -1.7401164747        1.8937636298
 H          0.6757381080       -3.5227450094        2.9964431439
 H          3.1134964657       -3.7032710551        2.6519918905
 H          4.2920627832       -2.0624841334        1.2694743667
 H          4.1978612507       -0.4626940377       -2.3734503464
 H          6.5531953416       -0.7847710422       -3.0155700152
 H          8.9298602189       -0.8814241358       -2.3888071123
 H         10.6850793501       -0.7074627248       -0.6688274788
 H         10.0876001105       -0.1938672071        1.6644249323
 H          7.7337521621        0.1515977426        2.2979937941
 H          5.3555424398        0.2462394916        1.6730892768
 H          4.2084441514        2.1528699951       -1.2913906368
 H          2.9422000306        3.9665175973       -2.3501621160
 H          0.4743423602        3.9654608408       -2.2771704235
 H         -0.7270313036        2.1998921894       -1.0834798157
 H         -1.0105322878       -1.7839581524       -0.8591525440
 H         -3.4495972593       -2.0327284538       -1.0881748267
 H         -5.2659386794       -2.7037140831        0.4032576577
 H         -6.7667190380       -4.3269970809       -0.6860761272
