  70
  -106.187582597600       0.286165972489308      !
 C         -8.2865619639       -2.5920860074       -1.0855694626
 C         -7.2852106435       -2.2562022825       -1.9814716726
 C         -6.2729159111       -1.3935230615       -1.6046705932
 C         -6.2521679460       -0.8665506120       -0.3165186042
 N         -5.2273189216        0.0093701515        0.0679436672
 C         -5.3991421190        1.2478597088        0.6536567499
 C         -6.5699801877        1.9209771461        0.9719556495
 C         -6.4586139612        3.1770716694        1.5365721141
 C         -5.2161606688        3.7611278533        1.7746213075
 C         -4.0483192750        3.1065183414        1.4386809090
 C         -4.1347329511        1.8426765037        0.8699198189
 C         -3.1565729226        0.9064731370        0.3918223963
 C         -1.7696961192        0.9158435602        0.3509962054
 C         -1.1059283963       -0.1899304478       -0.1565659935
 C          0.3741726971       -0.2142797993       -0.2001888642
 C          1.0843121475       -0.9316059669        0.7711081814
 C          0.4184441970       -1.6320345159        1.8110748178
 C          1.1141194691       -2.3400815145        2.7414123752
 C          2.5212592389       -2.3964375898        2.6847500779
 C          3.1980270764       -1.7280442982        1.7116629343
 C          2.5130493245       -0.9609834571        0.7326339763
 C          3.1964880261       -0.2577164486       -0.2694628970
 C          4.6739133136       -0.2806165541       -0.3101456993
 C          5.3322979529       -0.9761678976       -1.3469696594
 C          6.6953038248       -1.0146031579       -1.4049609081
 C          7.4806544653       -0.3576844744       -0.4340628456
 C          8.8899554561       -0.3769012857       -0.4665723497
 C          9.6193068499        0.2706263337        0.4909242188
 C          8.9725827356        0.9658869423        1.5249109187
 C          7.6080226735        1.0021643390        1.5847303064
 C          6.8263146222        0.3447985961        0.6115415144
 C          5.4179863862        0.3633206050        0.6467714620
 C          2.4857094720        0.4640397654       -1.2387529977
 C          3.1461632300        1.2063922490       -2.2530214371
 C          2.4440102610        1.8907315613       -3.1965778460
 C          1.0345641688        1.8791987588       -3.1839226189
 C          0.3630895598        1.1984373884       -2.2161464550
 C          1.0565821534        0.4793785992       -1.2074630167
 C         -1.8301373962       -1.2978089888       -0.6108007726
 C         -3.2102752421       -1.3244903096       -0.5880160034
 C         -3.8741550150       -0.2094270340       -0.0967015627
 C         -7.2549548846       -1.2108179636        0.5850915776
 C         -8.2688879808       -2.0662526967        0.1956246691
 H         -9.0783935571       -3.2619381422       -1.3849783643
 H         -7.2967334228       -2.6611259818       -2.9826637084
 H         -5.5026590286       -1.1116859458       -2.3069879534
 H         -7.5378587546        1.4847089134        0.7759656038
 H         -7.3556878847        3.7207788726        1.7946914402
 H         -5.1720429992        4.7427708692        2.2219609794
 H         -3.0854218306        3.5647088292        1.6074770810
 H         -1.2118904714        1.7648138949        0.7174050413
 H         -0.6603035670       -1.5915469682        1.8476655898
 H          0.5943444621       -2.8689850847        3.5270282592
 H          3.0573878923       -2.9750155199        3.4228751686
 H          4.2761422640       -1.7752282254        1.6685085512
 H          4.7344278184       -1.4795703923       -2.0930914904
 H          7.1941989139       -1.5520199890       -2.1992369933
 H          9.3828881623       -0.9135678661       -1.2650010079
 H         10.6990163957        0.2522223484        0.4598720112
 H          9.5649706676        1.4737369460        2.2722932549
 H          7.1050968096        1.5377574058        2.3778140812
 H          4.9214612302        0.9025107204        1.4419589299
 H          4.2261673338        1.2213212856       -2.2614495349
 H          2.9614483061        2.4489765175       -3.9631884117
 H          0.4945096998        2.4208935032       -3.9467523654
 H         -0.7169768171        1.1928558307       -2.1986906079
 H         -1.2860134396       -2.1518369087       -0.9874586711
 H         -3.7512802194       -2.1941283524       -0.9295406093
 H         -7.2255273628       -0.8164426117        1.5898533580
 H         -9.0442213645       -2.3306838254        0.8993114944
  70
  -106.187300426600       0.212295690473967      !
 C         -8.3048317824       -2.3715368296       -1.4458881560
 C         -8.2991896618       -1.0152590526       -1.7262618655
 C         -7.2798489137       -0.2092600415       -1.2546813961
 C         -6.2591712145       -0.7587352180       -0.4839893253
 N         -5.2270621614        0.0559123621        0.0016273508
 C         -5.3875412404        1.2486927285        0.6788549144
 C         -6.5513952378        1.8863335051        1.0842326550
 C         -6.4274918921        3.0715773122        1.7836307826
 C         -5.1794627106        3.6128216288        2.0844320231
 C         -4.0176014261        2.9711321883        1.7053908093
 C         -4.1169525059        1.7780153485        1.0020552019
 C         -3.1469297932        0.8535467630        0.4861995129
 C         -1.7595353673        0.8342099805        0.4804739963
 C         -1.1066425647       -0.2236299715       -0.1314988212
 C          0.3743585187       -0.2773159591       -0.1405368750
 C          1.0487171285       -0.9842716455        0.8622887756
 C          0.3477515303       -1.6586970907        1.8962421124
 C          1.0125629502       -2.3320672236        2.8735818673
 C          2.4218540138       -2.3655102668        2.8822828358
 C          3.1308848529       -1.7304538293        1.9096923223
 C          2.4773040382       -1.0279431289        0.8632586439
 C          3.1946693345       -0.3668712128       -0.1428245387
 C          4.6728526700       -0.4102777304       -0.1391181832
 C          5.3379182590       -1.6021759989       -0.4976102978
 C          6.7014774899       -1.6627821242       -0.5072940545
 C          7.4793136519       -0.5403469989       -0.1520440113
 C          8.8888665098       -0.5716538864       -0.1484557721
 C          9.6108983160        0.5343175005        0.2032643464
 C          8.9563212415        1.7214590935        0.5680115389
 C          7.5913584557        1.7841600260        0.5735358040
 C          6.8173465015        0.6606979127        0.2144406787
 C          5.4087820742        0.6949872251        0.2069432654
 C          2.5193525514        0.3325568791       -1.1523417494
 C          3.2124157602        0.9858343661       -2.2051661216
 C          2.5417230501        1.6547305604       -3.1820759432
 C          1.1332333352        1.7115440181       -3.1702425640
 C          0.4304943637        1.0908232692       -2.1844523261
 C          1.0905382634        0.3795601906       -1.1482553655
 C         -1.8403562246       -1.2420472564       -0.7490184704
 C         -3.2210905308       -1.2405747376       -0.7578740750
 C         -3.8747402006       -0.1960249838       -0.1199159437
 C         -6.2690575675       -2.1210730394       -0.1985795271
 C         -7.2865246437       -2.9209063956       -0.6846053081
 H         -9.1002917001       -2.9985257946       -1.8192041447
 H         -9.0888837998       -0.5826798737       -2.3228381272
 H         -7.2596583047        0.8443645303       -1.4900771110
 H         -7.5231382661        1.4662436482        0.8726077014
 H         -7.3191923797        3.5876293609        2.1078852114
 H         -5.1258902156        4.5428400017        2.6306897155
 H         -3.0497849285        3.3809111380        1.9519225218
 H         -1.1940452796        1.6295394263        0.9427595842
 H         -0.7319202000       -1.6223620531        1.8906786668
 H          0.4673913773       -2.8416731390        3.6548477279
 H          2.9333696611       -2.8963620191        3.6718424831
 H          4.2109296495       -1.7482837453        1.9226076659
 H          4.7452533912       -2.4635320686       -0.7711197835
 H          7.2063838772       -2.5763678288       -0.7886010681
 H          9.3875805137       -1.4886824529       -0.4295837403
 H         10.6907063967        0.5029827733        0.2034304931
 H          9.5434643676        2.5854121517        0.8440676800
 H          7.0820208490        2.6956350340        0.8530459959
 H          4.9052422737        1.6105968812        0.4853506107
 H          4.2914365462        0.9369741558       -2.2202134508
 H          3.0838809350        2.1446131179       -3.9778847164
 H          0.6186552585        2.2471465403       -3.9546334435
 H         -0.6492747668        1.1238425743       -2.1749568099
 H         -1.3044105631       -2.0453233234       -1.2334137695
 H         -3.7702377606       -2.0251011888       -1.2563488326
 H         -5.4864798080       -2.5424258567        0.4146783333
 H         -7.2881538617       -3.9773008119       -0.4601036205
  70
  -106.187219352600       0.194841806516258      !
 C         -8.2816389803       -2.3761937583       -1.5057218444
 C         -8.2912869597       -1.0113270403       -1.7408468178
 C         -7.2805522015       -0.2103642547       -1.2426464213
 C         -6.2531462251       -0.7743435348       -0.4920116643
 N         -5.2291670524        0.0342204012        0.0207181940
 C         -5.4017408975        1.1934121943        0.7507481123
 C         -6.5722765214        1.8036670248        1.1784351365
 C         -6.4607502843        2.9609410749        1.9248839183
 C         -5.2182366281        3.5002061512        2.2515258147
 C         -4.0499149654        2.8844579350        1.8502114671
 C         -4.1364625298        1.7206350807        1.0977690314
 C         -3.1571388913        0.8317434602        0.5388939571
 C         -1.7696183714        0.8298757795        0.5271275577
 C         -1.1062375900       -0.1827289267       -0.1473542953
 C          0.3746807612       -0.2126520983       -0.1790818222
 C          1.0839186354       -0.7468663904        0.9036397385
 C          0.4151489841       -1.2709475728        2.0410490674
 C          1.1085870688       -1.8115481364        3.0790396793
 C          2.5160551591       -1.8727944564        3.0364972279
 C          3.1948031790       -1.3805939021        1.9646563157
 C          2.5126263818       -0.7888642453        0.8689032291
 C          3.1967816903       -0.2771956630       -0.2434123400
 C          4.6732775723       -0.3153212145       -0.2835382414
 C          5.3247359971       -1.1542891928       -1.2133091995
 C          6.6873054742       -1.2103265286       -1.2675461644
 C          7.4798906538       -0.4302011534       -0.3991244236
 C          8.8889465408       -0.4645781075       -0.4301965512
 C          9.6251145495        0.3033445330        0.4278376434
 C          8.9857271345        1.1405993102        1.3556989267
 C          7.6215338382        1.1968598974        1.4100709465
 C          6.8329069922        0.4169699019        0.5382683513
 C          5.4248683563        0.4513260798        0.5719747211
 C          2.4860146549        0.2667941288       -1.3232068589
 C          3.1452783390        0.8258352436       -2.4495872893
 C          2.4424727852        1.3496518276       -3.4905762759
 C          1.0333204016        1.3571266918       -3.4677171358
 C          0.3627701617        0.8490626275       -2.3985425411
 C          1.0571953566        0.2913869176       -1.2931033648
 C         -1.8309668012       -1.1774074979       -0.8130642101
 C         -3.2114440932       -1.1984647760       -0.8084670163
 C         -3.8746055856       -0.1959495186       -0.1152977562
 C         -6.2471937943       -2.1455839982       -0.2527836832
 C         -7.2567805335       -2.9397439834       -0.7638169413
 H         -9.0703893233       -2.9990762550       -1.8998925851
 H         -9.0859246824       -0.5682472841       -2.3226549790
 H         -7.2725617336        0.8507661309       -1.4425092842
 H         -7.5396826637        1.3841868281        0.9466041210
 H         -7.3575334053        3.4566566525        2.2662456090
 H         -5.1740710631        4.4082145653        2.8343364078
 H         -3.0862816716        3.2925818549        2.1154769961
 H         -1.2117663250        1.6075724157        1.0271945156
 H         -0.6642117844       -1.2343937644        2.0620134021
 H          0.5873732853       -2.2064404730        3.9388726427
 H          3.0510008145       -2.3196371427        3.8619399082
 H          4.2725876986       -1.4400464013        1.9308548395
 H          4.7218568703       -1.7576325114       -1.8771115836
 H          7.1804468961       -1.8569822737       -1.9798681406
 H          9.3763336660       -1.1114420290       -1.1459833072
 H         10.7046375605        0.2719577736        0.3990228825
 H          9.5834814738        1.7405089429        2.0265544615
 H          7.1243648773        1.8397232984        2.1226867551
 H          4.9346925837        1.1023286895        1.2826094004
 H          4.2252114461        0.8358584950       -2.4640427604
 H          2.9598007472        1.7711168268       -4.3401714152
 H          0.4927203639        1.7787069826       -4.3025574004
 H         -0.7169112611        0.8658947778       -2.3696015683
 H         -1.2873325630       -1.9456175857       -1.3436699146
 H         -3.7535816035       -1.9661503845       -1.3398281829
 H         -5.4583471302       -2.5781255944        0.3443246553
 H         -7.2476464786       -4.0029919794       -0.5744009018
  70
  -106.187049454800       0.162780554960092      !
 C         -8.2750686039       -2.7289248099       -0.7714575285
 C         -8.3005908248       -1.4698968096       -1.3479121802
 C         -7.2924811961       -0.5615042099       -1.0844308280
 C         -6.2517981967       -0.9070335940       -0.2270491672
 N         -5.2306932464        0.0134329519        0.0469382270
 C         -5.4088646539        1.3247029152        0.4421731490
 C         -6.5812027249        2.0152018566        0.7148788189
 C         -6.4746624861        3.3304455534        1.1244589475
 C         -5.2352507068        3.9498929598        1.2704178373
 C         -4.0645767535        3.2611935988        1.0245400983
 C         -4.1463251252        1.9378076645        0.6124375753
 C         -3.1629688562        0.9404054188        0.2964619448
 C         -1.7765409319        0.9508979214        0.2593252053
 C         -1.1046284784       -0.2024757985       -0.1171610078
 C          0.3729523175       -0.2198982561       -0.1642740958
 C          1.0927688529       -0.9897677258        0.7603195379
 C          0.4399473174       -1.7383427553        1.7748788675
 C          1.1444025079       -2.5012444755        2.6539289280
 C          2.5493007106       -2.5689635719        2.5682380391
 C          3.2152258074       -1.8483356743        1.6255926163
 C          2.5212126814       -1.0182050013        0.7061799015
 C          3.1970475018       -0.2481466231       -0.2511363362
 C          4.6737815853       -0.2638685266       -0.3016386010
 C          5.3286905802       -0.8565090313       -1.4027382419
 C          6.6915359415       -0.8891400416       -1.4688978327
 C          7.4805917833       -0.3290441565       -0.4419649007
 C          8.8898061315       -0.3468079718       -0.4799294835
 C          9.6224613338        0.2036948670        0.5339981120
 C          8.9793955992        0.7972874965        1.6318141392
 C          7.6150048663        0.8309365537        1.6977152837
 C          6.8299518149        0.2712789769        0.6677331866
 C          5.4218371464        0.2868126197        0.7091426047
 C          2.4782072174        0.5353386820       -1.1651565506
 C          3.1330023070        1.3529955808       -2.1236807255
 C          2.4265896845        2.0907939475       -3.0225044380
 C          1.0179827764        2.0533482904       -3.0218690068
 C          0.3518573762        1.3021467764       -2.1035909955
 C          1.0490361607        0.5366332740       -1.1321932519
 C         -1.8258590584       -1.3499032435       -0.4687183392
 C         -3.2057386405       -1.3801312698       -0.4447663288
 C         -3.8752222155       -0.2328171206       -0.0431683426
 C         -6.2303517124       -2.1708761534        0.3555411287
 C         -7.2372363782       -3.0764116459        0.0772460470
 H         -9.0616346865       -3.4373449004       -0.9833570036
 H         -9.1056113642       -1.1960193868       -2.0138275401
 H         -7.2967564455        0.4127046828       -1.5500459395
 H         -7.5460375324        1.5396713370        0.6223026875
 H         -7.3730959260        3.8900091469        1.3399086721
 H         -5.1950696446        4.9806678723        1.5898562114
 H         -3.1027935186        3.7345353944        1.1528903535
 H         -1.2246399070        1.8412966303        0.5217002717
 H         -0.6368708892       -1.6871614768        1.8386262882
 H          0.6331502934       -3.0644947197        3.4210463014
 H          3.0925639341       -3.1954266955        3.2607065285
 H          4.2921071234       -1.9004995651        1.5624532383
 H          4.7284118264       -1.2908402965       -2.1895055675
 H          7.1875187581       -1.3475876124       -2.3130366164
 H          9.3800975424       -0.8052563032       -1.3273978748
 H         10.7020616017        0.1864220025        0.4987628998
 H          9.5744330164        1.2279379765        2.4240064781
 H          7.1147717497        1.2865840963        2.5406651297
 H          4.9285116040        0.7479568069        1.5537163406
 H          4.2126483725        1.3827621072       -2.1251929590
 H          2.9396988649        2.7081969593       -3.7453447668
 H          0.4725763077        2.6301276886       -3.7546072627
 H         -0.7277203158        1.2754866337       -2.1023512234
 H         -1.2794366301       -2.2290014343       -0.7785010892
 H         -3.7429155644       -2.2679147275       -0.7427097931
 H         -5.4320331593       -2.4304509889        1.0347120910
 H         -7.2155666209       -4.0556568807        0.5323709754
  70
  -106.186771821700       0.121342010426385      !
 C         -8.1253569359       -2.9058582002       -0.8765114171
 C         -8.1777720313       -1.6604104742       -1.4802364963
 C         -7.2230740893       -0.7035722835       -1.1900101371
 C         -6.2094432405       -0.9873979902       -0.2794105728
 N         -5.2377317307       -0.0214287611        0.0176999414
 C         -5.4792036952        1.2880670916        0.3825038830
 C         -6.6864285414        1.9376339899        0.5967117758
 C         -6.6453491966        3.2629189008        0.9850719488
 C         -5.4363767695        3.9313502276        1.1664853261
 C         -4.2318940258        3.2839282848        0.9780796757
 C         -4.2473409151        1.9513596790        0.5879421039
 C         -3.2159812648        0.9876473499        0.3231496454
 C         -1.8297039998        1.0501056192        0.3297849961
 C         -1.1042977945       -0.0811769972       -0.0123865408
 C          0.3735639841       -0.0622370588       -0.0347009878
 C          1.0921789714       -0.8374205270        0.8869870844
 C          0.4374483775       -1.5691243879        1.9125415248
 C          1.1376677903       -2.3403683784        2.7877710033
 C          2.5395891277       -2.4368146940        2.6842364090
 C          3.2074990134       -1.7357073726        1.7282741005
 C          2.5189989378       -0.8942096431        0.8150673307
 C          3.1955416425       -0.1451891247       -0.1583623138
 C          4.6651269821       -0.2406770122       -0.2784450493
 C          5.2182042165       -0.8611686250       -1.4200665100
 C          6.5695460898       -0.9842223812       -1.5625451869
 C          7.4493451584       -0.4917192067       -0.5753767569
 C          8.8496482832       -0.6055168719       -0.6913153381
 C          9.6728612541       -0.1198424165        0.2857122974
 C          9.1325663681        0.5024531205        1.4223065925
 C          7.7792528266        0.6294634370        1.5631461711
 C          6.9021973540        0.1379188881        0.5733570866
 C          5.5022830999        0.2476721160        0.6934632340
 C          2.4804084417        0.6715007273       -1.0460828949
 C          3.1414531679        1.4898553421       -1.9997413740
 C          2.4408563821        2.2596011566       -2.8760756362
 C          1.0319703006        2.2505724396       -2.8596336560
 C          0.3605489372        1.4953296156       -1.9483398223
 C          1.0519846373        0.7013832523       -0.9957666377
 C         -1.7716100272       -1.2604187958       -0.3680011747
 C         -3.1486918052       -1.3437125471       -0.3844127151
 C         -3.8719945041       -0.2163103058       -0.0219833748
 C         -6.1616991257       -2.2373158577        0.3312318985
 C         -7.1149593815       -3.1911763009        0.0267532276
 H         -8.8699337048       -3.6520253621       -1.1093249798
 H         -8.9620000479       -1.4349514732       -2.1877487893
 H         -7.2476520581        0.2609023855       -1.6750553799
 H         -7.6280283140        1.4236682906        0.4744369359
 H         -7.5717167425        3.7918625734        1.1544969356
 H         -5.4472449249        4.9683383918        1.4675623263
 H         -3.2945782575        3.7965242288        1.1339091591
 H         -1.3204821408        1.9636557316        0.5990660779
 H         -0.6370187900       -1.4943676741        1.9909511270
 H          0.6251039098       -2.8879600407        3.5652558362
 H          3.0792190317       -3.0697069700        3.3736971071
 H          4.2820178283       -1.8107187515        1.6516807492
 H          4.5473075234       -1.2431535552       -2.1764527078
 H          6.9864007774       -1.4636581175       -2.4372435559
 H          9.2598181498       -1.0864582156       -1.5683489865
 H         10.7451035465       -0.2115167030        0.1913435368
 H          9.7981286824        0.8810275072        2.1845413595
 H          7.3586739840        1.1069269301        2.4370429290
 H          5.0888881769        0.7329920439        1.5670525590
 H          4.2214782208        1.4969765860       -2.0126094484
 H          2.9585396086        2.8798242980       -3.5932588101
 H          0.4903526406        2.8519180590       -3.5752077740
 H         -0.7191314798        1.4906292753       -1.9368245105
 H         -1.1826891610       -2.1216889708       -0.6486355248
 H         -3.6432449500       -2.2553301006       -0.6841631650
 H         -5.3845820802       -2.4487804269        1.0505681234
 H         -7.0729567655       -4.1594482926        0.5033298939
  70
  -106.185182496400       2.257396513399125E-002 !
 C         -7.8153337639       -3.1911809235       -1.0613111903
 C         -7.9131410204       -1.9658605740       -1.6994116280
 C         -7.0585423590       -0.9327449283       -1.3620828409
 C         -6.1014830372       -1.1193665936       -0.3690384422
 N         -5.2207573723       -0.0823895990       -0.0308067956
 C         -5.5643279914        1.2225236850        0.2597015203
 C         -6.8199361076        1.8045515084        0.3578516014
 C         -6.8853511608        3.1446556534        0.6874474836
 C         -5.7341300406        3.8928677679        0.9242276089
 C         -4.4831855826        3.3134827363        0.8527274092
 C         -4.3912785334        1.9675985937        0.5233793117
 C         -3.2877752904        1.0607084887        0.3695723403
 C         -1.9101470624        1.2105673533        0.4598076622
 C         -1.0976709135        0.1180703947        0.1968567306
 C          0.3769518373        0.2014838147        0.2153206682
 C          1.1000095186       -0.5840516619        1.1261162280
 C          0.4499119083       -1.2928749879        2.1701357912
 C          1.1477513938       -2.0865394248        3.0272554377
 C          2.5411738665       -2.2341894448        2.8809921997
 C          3.2051713373       -1.5576805001        1.9045279433
 C          2.5216526798       -0.6878664112        1.0147988771
 C          3.1912414979        0.0369810535        0.0183202329
 C          4.6297603659       -0.1869658850       -0.2316395553
 C          4.9924351794       -0.8157686095       -1.4441418504
 C          6.2979075048       -1.0874700634       -1.7290514581
 C          7.3216535531       -0.7450288330       -0.8205202684
 C          8.6789524058       -1.0210568564       -1.0811924355
 C          9.6465605921       -0.6799404664       -0.1782296151
 C          9.2991377485       -0.0453230666        1.0245946576
 C          7.9916711312        0.2375245670        1.3051787132
 C          6.9685345493       -0.1037485882        0.3958354808
 C          5.6097568379        0.1638168703        0.6623617353
 C          2.4802208304        0.9135235085       -0.8146608206
 C          3.1475397407        1.7437705065       -1.7531180663
 C          2.4543814020        2.5640968475       -2.5885666460
 C          1.0463546551        2.5872944959       -2.5503723745
 C          0.3698263064        1.8181544350       -1.6542817616
 C          1.0545508104        0.9821357638       -0.7336263246
 C         -1.6712667681       -1.1130638336       -0.1511371326
 C         -3.0358495807       -1.2848452651       -0.2442619403
 C         -3.8464796316       -0.1923112819        0.0285555452
 C         -6.0120531125       -2.3479657320        0.2793784366
 C         -6.8634900716       -3.3784361210       -0.0728575469
 H         -8.4778503380       -3.9984345025       -1.3346953568
 H         -8.6508068727       -1.8171457771       -2.4740783368
 H         -7.1145594636        0.0153058149       -1.8759041529
 H         -7.7181135047        1.2288517507        0.1918468484
 H         -7.8510275104        3.6221295617        0.7655683435
 H         -5.8277815951        4.9389455441        1.1752595867
 H         -3.5918063774        3.8895424246        1.0508387921
 H         -1.4773979057        2.1617067510        0.7330010980
 H         -0.6183312394       -1.1780634049        2.2807669294
 H          0.6396493578       -2.6119389127        3.8227803654
 H          3.0784187502       -2.8852856356        3.5552218687
 H          4.2736703765       -1.6704778182        1.7979027436
 H          4.2093010097       -1.0858724735       -2.1382369795
 H          6.5666633017       -1.5738547661       -2.6562777619
 H          8.9390555869       -1.5103846757       -2.0094115560
 H         10.6849926979       -0.8958702366       -0.3835387689
 H         10.0764649090        0.2159604447        1.7279429567
 H          7.7207613229        0.7242491259        2.2315885949
 H          5.3468027778        0.6593333039        1.5870337394
 H          4.2271743516        1.7222400263       -1.7828144776
 H          2.9766866927        3.1975732464       -3.2905814848
 H          0.5084698804        3.2243823898       -3.2373140220
 H         -0.7091275986        1.8395630320       -1.6294706419
 H         -1.0147597804       -1.9436747518       -0.3663554769
 H         -3.4536993282       -2.2354501248       -0.5390309466
 H         -5.2822803842       -2.4837752702        1.0635652809
 H         -6.7850768442       -4.3313326853        0.4293950605
