77
 energy: -126.260910459249 gnorm: 0.000036671202 xtb: 6.7.1 (edcfbbe)
N           -6.69251460817193        4.80961440751636        1.69901840457020
C           -5.65436530835071        4.42396350254926        1.39216084985747
C           -4.38041840308588        3.95502027904533        1.01770315746539
C           -3.65986545581754        4.60285478251339        0.00922931323712
C           -2.41509896465637        4.14356045084142       -0.35522756610950
C           -1.85359903665712        3.02617822163519        0.27495153511683
N           -0.59379961014741        2.57376934884936       -0.09266199269535
C            0.37810784954414        3.49681488718743       -0.53649555589198
C            1.14305116814782        3.21914741828829       -1.66597352459653
C            2.10061883339374        4.12070058510800       -2.09198191230614
C            2.29970062553577        5.30633797186750       -1.40347875905950
C            1.53557905693682        5.58738555376149       -0.28224960000382
C            0.58091397150176        4.68811527022967        0.15529716122173
C           -0.25972196126317        1.21952365962192       -0.03770963552951
C            1.03260180389014        0.83339157307666        0.31789000830519
C            1.37672753235958       -0.51049786873619        0.35250559159357
N            2.68743189588541       -0.88765320116708        0.72513548473955
C            3.77303926458173       -0.57833108138279       -0.09633945027614
C            3.61609268773486        0.04103733640469       -1.32954022873588
C            4.71437314830534        0.32847644795855       -2.12615100388216
C            5.98624990686487       -0.00447960030334       -1.70683853609145
C            6.15864181781813       -0.64386423036952       -0.48697186760991
C            5.06633716541343       -0.93471142553374        0.30857411939526
O            5.31356096178283       -1.59152374857619        1.49251659514310
C            4.22952759236232       -1.90507384955816        2.28059429617318
C            4.48835045844205       -2.57018413922044        3.46435796095866
C            3.44991533703838       -2.90099591711869        4.32388650950735
C            2.15658684451015       -2.55108505975616        3.99326164573388
C            1.89233113765539       -1.88410097089526        2.80606578415871
C            2.91741511471010       -1.56437695687775        1.92480659957346
C            0.43658664487971       -1.48649691809248        0.04126433582568
C           -0.85168025788133       -1.10359249447053       -0.31488712289834
N           -1.81120561177729       -2.08385697234728       -0.65758742963557
C           -1.66540845251985       -2.84867193972388       -1.81749869628603
C           -0.57886283477075       -2.70684057547910       -2.67132900856924
C           -0.46755168806324       -3.48182546050494       -3.81635689884794
C           -1.44405586752407       -4.40429293207492       -4.13242380079597
C           -2.54767055679435       -4.54228668539332       -3.30219731863554
C           -2.66310614758132       -3.77133641558621       -2.16069134923551
O           -3.79898157907462       -3.94812417583876       -1.40337198368855
C           -3.91329894216950       -3.20418249222076       -0.25160932584885
C           -5.03846558686836       -3.41482771029517        0.52321143538082
C           -5.21103047289121       -2.71932702568055        1.71195882437502
C           -4.24227446412338       -1.82731851440824        2.12453493093241
C           -3.11273487685410       -1.61269303899431        1.34902356651273
C           -2.93818913507443       -2.27846067278728        0.14269139381064
C           -1.19884219973024        0.23962082015269       -0.35956349539967
C           -2.57758487471066        2.38857150433121        1.28943895619702
C           -3.82395395695054        2.84191627262370        1.65525989435062
H           -4.09094836266501        5.45998314459731       -0.48676282313302
H           -1.86701767225535        4.64241375257954       -1.13992050994518
H            0.97669099222030        2.30012476880967       -2.20829767461625
H            2.68757276289681        3.90065303131451       -2.97093771321501
H            3.04670180012824        6.00911177837261       -1.73992387712963
H            1.68805106208565        6.50833567059277        0.26066360587685
H           -0.01030739093760        4.90193741956017        1.03377470075138
H            1.77000688051740        1.57952147269525        0.57170632063022
H            2.62621106184026        0.29867359952107       -1.66981866189086
H            4.56375105418074        0.80996677784815       -3.07998209840955
H            6.84528762811993        0.21882904119707       -2.31970844327094
H            7.13740553362974       -0.93081945418559       -0.13554960358118
H            5.51211021940076       -2.81727914131546        3.69810541610406
H            3.66218057229581       -3.42178929911946        5.24429304738344
H            1.33933990032361       -2.79075621305775        4.65617493266296
H            0.87861431997685       -1.60687716733211        2.56489533980238
H            0.70478359867466       -2.53121362307159        0.07389211296610
H            0.18616407849858       -1.98215259360174       -2.44289665538359
H            0.39064363821251       -3.35296369192048       -4.45794348892719
H           -1.36260177811572       -5.01190805184097       -5.01986443721649
H           -3.33685985264368       -5.24250855074679       -3.52712076518697
H           -5.76840676270573       -4.13130714381287        0.18026711721045
H           -6.09424546489882       -2.88843915267652        2.30750910560564
H           -4.35353628521305       -1.29452056790411        3.05647733825354
H           -2.35424379554449       -0.92482200884293        1.68638118574776
H           -2.19820435795056        0.52076231919790       -0.65546235080040
H           -2.14517659372033        1.54233181959070        1.80008987582392
H           -4.37342575211842        2.34972584338414        2.44375771236530
