77
 energy: -126.170445225491 gnorm: 0.000144195528 xtb: 6.7.1 (edcfbbe)
N           -7.54221896368499        3.13022707261326        1.16344750717067
C           -6.41691446427641        3.02504569004718        0.90018442882146
C           -5.07060455504118        2.89930169605496        0.58592064056130
C           -4.52073811540440        3.57423135231534       -0.53244538792618
C           -3.19532491662927        3.44614752637170       -0.84053743168824
C           -2.34667372175454        2.64194099276957       -0.05353943302293
N           -1.00031531082214        2.48745203418100       -0.39058707895708
C           -0.27566661884839        3.58763511129315       -0.87090554105001
C            0.65967797483905        3.42727297616556       -1.89321298652626
C            1.37404141378186        4.51374468299561       -2.35900792164780
C            1.16036135707905        5.77378053335326       -1.82258756198192
C            0.22390699985983        5.94029419635712       -0.81416801338032
C           -0.48921047784447        4.85777445455461       -0.33607070682272
C           -0.38567513276021        1.25525356008189       -0.24969103951256
C            0.96425657369734        1.16429357544756        0.14116102490584
C            1.56266123970349       -0.06575208097331        0.30237118107005
N            2.92852630716395       -0.13999562957890        0.67993299175093
C            3.92249580061921        0.23567517389815       -0.21013123071381
C            3.64297160646518        0.64714147291834       -1.51223985107710
C            4.66003872587123        1.01599884809918       -2.37032909297873
C            5.98496190279306        0.97800746997487       -1.94936155863469
C            6.28627738686885        0.55386437415027       -0.66754386054002
C            5.27243638629635        0.17783006537532        0.19978908214265
O            5.63374125535582       -0.25319212778458        1.44480254383808
C            4.64314958161970       -0.63341737113335        2.30491494253620
C            5.02199877901828       -1.06806071859533        3.56587270339300
C            4.06363698521738       -1.44917001842240        4.48782623463266
C            2.71644905094656       -1.38335048469515        4.15094063496128
C            2.32839143086753       -0.94966655271275        2.89766632767391
C            3.27845933341957       -0.58066363266115        1.94672614374888
C            0.85021542514738       -1.25390635688247        0.09564028262518
C           -0.49360173705841       -1.15876239306237       -0.28404601937606
N           -1.23402716821975       -2.35293192155028       -0.49193708489707
C           -2.19407258851249       -2.74787059533399        0.42476299444168
C           -2.44108885862146       -2.03895258841923        1.59909853373606
C           -3.40783161453572       -2.46240526715292        2.48921997448329
C           -4.15014978122232       -3.61002072229838        2.22932733137067
C           -3.90903071048495       -4.33864825511287        1.07867538852133
C           -2.93852338654802       -3.92318983420973        0.18004390658404
O           -2.73275380217805       -4.69159311673822       -0.93000911070504
C           -1.77108740735853       -4.29687534372245       -1.81576012598097
C           -1.56711805141024       -5.08718364644882       -2.93679887094680
C           -0.61616664554440       -4.73048787896386       -3.87581786039017
C            0.12974112671674       -3.56988868789392       -3.69881781176898
C           -0.06708802155339       -2.77416302052956       -2.58680974432822
C           -1.00805192925898       -3.12437161163939       -1.61982363883345
C           -1.10595093281752        0.06230680235240       -0.45754914813213
C           -2.88929644932964        1.97555211557789        1.06360672755371
C           -4.21318663602940        2.09755488167841        1.37896661771632
H           -5.16993401012588        4.18785200960485       -1.14142624975251
H           -2.78720905904044        3.95581984421720       -1.70176682060117
H            0.80937593889711        2.44938794802368       -2.32589751087554
H            2.09443233009549        4.37828912245700       -3.15201056721979
H            1.71747813595947        6.62207949614569       -2.19038981638502
H            0.05239137784367        6.91891191119698       -0.39046207906931
H           -1.21289641316686        4.98392581563787        0.45596234438344
H            1.53018544875763        2.06598092428325        0.31890948083564
H            2.61804581722328        0.67314187691765       -1.84430078178442
H            4.42050875135321        1.33148356683295       -3.37366370754089
H            6.77870860129892        1.27031425140653       -2.61793320229433
H            7.30453831738209        0.50138047575961       -0.31589276309506
H            6.07398591300149       -1.09550217311353        3.80198865028925
H            4.36525897800580       -1.78736375498595        5.46621716518108
H            1.96420706381905       -1.66747290921467        4.87001080539783
H            1.28159879954658       -0.89185359355545        2.64692153263704
H            1.32244640182938       -2.21331503666152        0.22598139345153
H           -1.86810362023773       -1.14932066554621        1.80437573975309
H           -3.58562464729872       -1.89638608896668        3.39018717001420
H           -4.90908627190786       -3.93621841388402        2.92225348077806
H           -4.46171211271065       -5.23737820879897        0.85474625490196
H           -2.16821775742516       -5.97527790527367       -3.05156628711467
H           -0.46165727119555       -5.35037655886446       -4.74439176911014
H            0.86549565268087       -3.28272529218101       -4.43340837457354
H            0.50737631595967       -1.87108593089689       -2.45834058621691
H           -2.14054676388187        0.10998774133586       -0.76093665104736
H           -2.23727190214347        1.38096842967933        1.68690668416933
H           -4.62218995188566        1.59536915528010        2.24438062262419
