144
 energy: -190.800079338865 gnorm: 0.000060522211 xtb: 6.7.1 (edcfbbe)
C           -3.00064103592537       -1.52948703990356        1.87270583214288
C           -3.77283913267255       -0.74098351127836        0.85756633022582
C           -5.15574436397168       -0.74377634985373        0.88335106011412
C           -5.88077667625933       -0.00408372883959       -0.04759913320629
N           -7.28008406720032       -0.00476422631174       -0.01214960063835
C           -8.08719809504085       -1.12089175428518        0.07738972323301
C           -7.75489968981960       -2.46795556775769        0.08581995031219
C           -8.78123005781161       -3.38847996714234        0.15100286718799
C          -10.13311501946367       -3.02120221778994        0.19975808121060
C          -11.19022411888116       -4.11391295110822        0.27478496635179
C          -12.61416004819254       -3.55331531059026        0.34511954396540
C          -10.95171895674692       -4.96341476000695        1.53235155123550
C          -11.08700980591528       -4.99834103545937       -0.97713202027362
C          -10.45370387361204       -1.67172310847265        0.16076595816838
C           -9.44200607855789       -0.72439162001377        0.09504091199148
C           -9.44505258551300        0.71286461795554        0.01766611962646
C          -10.45984862262088        1.65909314489389        0.01909705061254
C          -10.14396383492466        3.00893425476850       -0.03986914728795
C          -11.20464541287986        4.10068545491048       -0.04481025001820
C          -11.05900990636649        4.94017089468907       -1.32311847085624
C          -12.62954574334005        3.53947709299736       -0.00592766084841
C          -11.01086117007971        4.99479554941691        1.18938361332740
C           -8.79225185173511        3.37751716370139       -0.08167970921381
C           -7.76279426899935        2.45816147335139       -0.08278948758153
C           -8.09220319864355        1.11074589943279       -0.05133201953115
C           -5.20219851571450        0.73732804561299       -1.01143863021656
C           -3.81915766123331        0.74368571499843       -1.04554621534518
C           -3.09618345253484        1.53919465503765       -2.09107261229141
C           -3.07690073790048        0.00527809528938       -0.10855691114156
B           -1.50820535641889        0.01586136070249       -0.13210606983849
C           -0.70611845366711        1.08595820063998        0.62449680154079
C           -1.38097798094905        2.09379786257412        1.33880888033902
C           -0.69472064063595        3.06929652104420        2.02041332994889
C            0.70275594291647        3.06916786544599        2.01776226690798
C            1.38625991357654        2.09334972760736        1.33384926473941
C            0.70853141041721        1.08535887807888        0.62246894862235
B            1.50763262241892        0.01360629210933       -0.13497667207486
C            3.07632335551860        0.00069190580853       -0.11342227194350
C            3.81879491188854        0.72640113182646       -1.06008862189740
C            3.09584752973498        1.50989164254266       -2.11466508957043
C            5.20184425276975        0.71893601227217       -1.02683356405510
C            5.88035796105161       -0.00928417614836       -0.05286748060741
N            7.27953891200261       -0.00889849929775       -0.01654685425064
C            8.09115883002069        1.10634046086068       -0.07331119278734
C            7.76136329170727        2.45288668293589       -0.12914567096827
C            8.79045949288640        3.37256146208745       -0.14337881587672
C           10.14225014281289        3.00545557770588       -0.09305555401954
C           11.20256843620451        4.09735401658912       -0.11597710211316
C           11.05866759421213        4.91460760558994       -1.40882736877869
C           11.00662839967722        5.01287344067173        1.10209741847366
C           12.62760002315228        3.53741209978344       -0.06510731876908
C           10.45849632923434        1.65700747762412       -0.00899940305079
C            9.44407941129468        0.71051776425324        0.00534284662325
C            9.44166980829485       -0.72512413685969        0.10851038142638
C           10.45385146926837       -1.67023655867612        0.19504905207502
C           10.13417807714941       -3.01899020606594        0.25905568276186
C           11.19188119541750       -4.10900545641882        0.36094510351687
C           10.94992889037908       -4.93142795235426        1.63578327857195
C           12.61514830283321       -3.54578849269273        0.42370255986548
C           11.09387796861819       -5.02067975092270       -0.87167306286998
C            8.78276505139128       -3.38816347510994        0.21198441069663
C            7.75597318220490       -2.46981089538401        0.12599167151946
C            8.08717365757665       -1.12279700387903        0.09445227510258
C            5.15498901696878       -0.73638621308575        0.88776968644137
C            3.77211935830165       -0.73418444970720        0.86148018455994
C            2.99964028809232       -1.51122510864219        1.88519355888952
C            0.70561371978279       -1.04951864867656       -0.90101213195224
C            1.38056266152258       -2.05496019767144       -1.61861145669354
C            0.69425280111966       -3.02519936219756       -2.30766442275249
C           -0.70325272079828       -3.02332381642071       -2.30754091770222
C           -1.38687189298250       -2.05145056981105       -1.61812381348046
C           -0.70918096707794       -1.04803361815863       -0.90024669436263
H           -3.66658323431459       -2.03052143023301        2.57182387081121
H           -2.33167274537822       -0.87331234204463        2.42737746704170
H           -2.38293387877283       -2.27584653748088        1.37492156002927
H           -5.68487516294453       -1.29762858987048        1.64587770618607
H           -6.72692308201809       -2.79323004755054        0.03164371834624
H           -8.51672661819287       -4.43489999401994        0.15893387993130
H          -12.85304619928725       -2.97601548546827       -0.54522073717931
H          -13.32368185667614       -4.37593767942510        0.41075406642137
H          -12.74472675211250       -2.92623875217558        1.22429309952848
H           -9.97863773132246       -5.44602016413211        1.50847536951608
H          -11.00108284500545       -4.33964841525733        2.42296229448744
H          -11.71252843214027       -5.73745394981763        1.61046914627070
H          -10.11554630889388       -5.48046123597202       -1.04390708126286
H          -11.85079657132706       -5.77296396123126       -0.95212951537479
H          -11.23186178323157       -4.39881201726428       -1.87393580007380
H          -11.47677581598370       -1.33516010823734        0.17460739067996
H          -11.48125432047489        1.32135986761999        0.07232692441215
H          -11.82444285445130        5.71304513998242       -1.35226726862064
H          -11.17192091983449        4.30904591235274       -2.20271749208069
H          -10.08711078483381        5.42324704625877       -1.37344518304406
H          -13.34222358280341        4.36183945021727       -0.02154619541838
H          -12.80038603986396        2.96583177739385        0.90228140512184
H          -12.82591006483726        2.90881139924075       -0.87015457379678
H          -11.77644435988467        5.76760257981262        1.21560607408958
H          -10.03864172848143        5.47980364028698        1.18018761407301
H          -11.08673050300434        4.40177323891795        2.09895101623528
H           -8.53003029160638        4.42419544691276       -0.10895837537204
H           -6.73396458165452        2.78491618659304       -0.09571259147083
H           -5.76810006864296        1.28728772506674       -1.75006960619877
H           -3.79350518330738        2.00461667489797       -2.78421377875578
H           -2.49576041174962        2.31621215990122       -1.61925475265435
H           -2.41534448010209        0.89729797936650       -2.64770810762692
H           -2.46327990371397        2.09451051485137        1.34616158082876
H           -1.23357649228612        3.83622541725006        2.56122325593955
H            1.24380138473363        3.83603696489773        2.55646318847626
H            2.46858260415844        2.09371640059871        1.33734248038354
H            3.79317267713677        1.96837243431333       -2.81241725611193
H            2.41583303939734        0.86154340897425       -2.66478273842360
H            2.49453297622629        2.29140701348962       -1.65146257041506
H            5.76764665750316        1.25816759480711       -1.77337586209584
H            6.73248180992769        2.77908331856445       -0.14902283073506
H            8.52781691592956        4.41845052907340       -0.18978925467310
H           11.17488787850611        4.26908775283580       -2.27749927990328
H           10.08613236120422        5.39519347729006       -1.46968675485929
H           11.82291985038260        5.68814631520804       -1.44923584129253
H           11.08183309559613        4.43601307860044        2.02204735866295
H           10.03407702278123        5.49695723341596        1.08314025987580
H           11.77163535797476        5.78657709111318        1.11563557922633
H           12.79723940102987        2.97987950518573        0.85331118330213
H           12.82547552514517        2.89171342923648       -0.91782599104575
H           13.34003893119315        4.35962689844531       -0.09404405463489
H           11.47993241636085        1.32071351224275        0.05193712794646
H           11.47659023489126       -1.33262102203014        0.20581442221573
H            9.97566765092361       -5.41204456118973        1.62084483238036
H           11.00006725966476       -4.28966934911848        2.51350254780687
H           11.70875733860474       -5.70554140391614        1.73077927373490
H           12.74229302489709       -2.89912531365597        1.28908020404095
H           12.85656096924396       -2.98834346914199       -0.47855142334826
H           13.32510191768526       -4.36611765825035        0.51015686270429
H           11.24290807792672       -4.44098959508137       -1.78074974141710
H           11.85745474983336       -5.79457904396887       -0.82623074722222
H           10.12269773323061       -5.50416457642729       -0.93221389951894
H            8.51897323231660       -4.43445333998732        0.23855958470979
H            6.72850577967426       -2.79697657286184        0.07368625527088
H            5.68382344403291       -1.27971219576376        1.65801055000644
H            2.38246642924896       -2.26330172363384        1.39534561121343
H            3.66533383872955       -2.00425365054605        2.59021913814026
H            2.33014728002617       -0.84912793398503        2.43209957175383
H            2.46289059013496       -2.05757291258344       -1.62289133683034
H            1.23308609725580       -3.78959939665696       -2.85204224413761
H           -1.24422918401763       -3.78622396880728       -2.85189712341061
H           -2.46920535772716       -2.05132972503998       -1.62207691358643
