144
 energy: -190.861235455774 gnorm: 0.000066854652 xtb: 6.7.1 (edcfbbe)
C           -2.94199018664979       -2.31825738708608        0.28121653308943
C           -3.73273976378716       -1.05543729469217        0.09742259154069
C           -5.11750920673096       -1.09275069553548        0.12004550813098
C           -5.85782988194008        0.06612180952837       -0.08009003609986
N           -7.26213006310616        0.02368088807193       -0.06035543239332
C           -8.05772792146984       -0.87086365416593       -0.74671912436897
C           -7.71578833087958       -1.87741482329121       -1.63518547018430
C           -8.73025183228974       -2.63052453800190       -2.19757784991061
C          -10.08141411087641       -2.40946590593659       -1.91364242156096
C          -11.19512752633413       -3.25249884109213       -2.52230989169216
C          -10.67185909431917       -4.35835527439069       -3.44425712588351
C          -12.12000726161700       -2.34450605622643       -3.34678697763556
C          -11.99480598289522       -3.91778076043362       -1.39164125754556
C          -10.41321027249957       -1.37519245736293       -1.04808396173959
C           -9.41740954328569       -0.60492570959794       -0.46818010538646
C           -9.43539952362904        0.51399672221160        0.43366754023630
C          -10.45449591472053        1.21936158981675        1.05445279625808
C          -10.15500922155094        2.27292197666633        1.90845220365030
C          -11.29435317636141        3.04294737658183        2.56463728037219
C          -10.80558557276983        4.19095236473467        3.45355269073589
C          -12.19148665158544        3.64139638041587        1.47036532709547
C          -12.11358548594792        2.08050353205648        3.43771137919613
C           -8.81043252667925        2.57907491343205        2.13963197640095
C           -7.77325988036037        1.89221034327810        1.53558704622067
C           -8.08554628012858        0.86598713282990        0.65884829766708
C           -5.19596622746318        1.26837476549535       -0.29563880998881
C           -3.81087643944550        1.32031333508200       -0.29243930047241
C           -3.10936477596185        2.63484796870944       -0.47591587274624
C           -3.05808717055382        0.15588310841530       -0.10018916394301
B           -1.48898550280414        0.20082042714686       -0.09730535786762
C           -0.71422006162355        0.24310701530522        1.25429446833619
C           -1.39332355520410        0.28766679349753        2.47394462988682
C           -0.71550325853082        0.30070134978775        3.68142421588535
C            0.66953333255753        0.26371875125428        3.69109200970686
C            1.36285292855811        0.22479169026253        2.49301817717378
C            0.69945720650162        0.22137738584721        1.26391415187477
B            1.49075648587969        0.20087041889705       -0.07875758418283
C            3.05973204143341        0.15372762974703       -0.06438005726642
C            3.81410660247323        1.32084241708449        0.10314223236830
C            3.11502515733960        2.64346255159914        0.22802278521674
C            5.19843748428485        1.26274579810711        0.14044750213854
C            5.85822754736622        0.04996986070134       -0.01327666181336
N            7.26212716234618       -0.00263003520798        0.01648769444212
C            8.02414512329553       -0.87166829775988        0.77047168215527
C            7.64043767643161       -1.83900447335946        1.68505356326909
C            8.62691803162375       -2.57177408319954        2.31942448427463
C            9.98972983347836       -2.36846267857633        2.08158364111824
C           11.07268022186761       -3.18952485391596        2.77049985767182
C           11.91937018597090       -3.89907070923438        1.70276090018852
C           11.96326992417697       -2.25204946750899        3.59975810654777
C           10.50551299649723       -4.25851291426113        3.70982778255234
C           10.36250624923353       -1.37284433326344        1.18784670148294
C            9.39543123506451       -0.62336245625417        0.53643483739522
C            9.45622585076223        0.45773171095441       -0.40861290136765
C           10.50350970716948        1.13309102226728       -1.01554484227361
C           10.24483304856465        2.15346888307781       -1.92154428650391
C           11.41479531455945        2.89219531817406       -2.55957494872723
C           10.96979735797610        4.00009626934469       -3.51943555524255
C           12.26991277210002        1.89167162435112       -3.35161957109100
C           12.26318525951203        3.53722809250436       -1.45292840969042
C            8.91245753657568        2.45732762954294       -2.21759902313939
C            7.84781924310294        1.79955863467959       -1.62907598178917
C            8.11863523264112        0.80666641746200       -0.70164097661102
C            5.11662285453585       -1.11110496471056       -0.19536497510027
C            3.73196801421592       -1.06629640671959       -0.20905108064256
C            2.93796199098276       -2.32968004054359       -0.37412966687714
C            0.71629195520568        0.21282973675309       -1.43065534773458
C            1.39569335683347        0.22903557865209       -2.65076551740820
C            0.71805820128220        0.21584275625792       -3.85839434228139
C           -0.66702000048557        0.18003519084588       -3.86745143379695
C           -1.36065419628988        0.16806037146363       -2.66893197787903
C           -0.69757423605363        0.19164324420982       -1.43990685474443
H           -3.59751991069722       -3.16805156718513        0.45799361621904
H           -2.25826808812279       -2.21973545183626        1.12286410206617
H           -2.34229191027832       -2.51783327315180       -0.60642059622885
H           -5.63204088470220       -2.02495392876868        0.30486081055677
H           -6.68531675708625       -2.07092304762182       -1.89378190192758
H           -8.44596853993379       -3.41317997792696       -2.88178102475581
H          -10.02371769166439       -5.04471947454089       -2.90376488919426
H          -11.51171083506597       -4.92863444256248       -3.83709400137438
H          -10.12672703014909       -3.94091244183388       -4.28792611862889
H          -12.57715785293740       -1.57759185027240       -2.72736545771757
H          -11.55597830480966       -1.85192904045100       -4.13678193910611
H          -12.91421483235521       -2.93205276721751       -3.80337807992349
H          -12.44285822640739       -3.17756462509748       -0.73433056158326
H          -12.79187035235304       -4.53226266790953       -1.80575580998383
H          -11.34366486239364       -4.55320371317185       -0.79398447145558
H          -11.44420894360495       -1.15495705587731       -0.81581587839862
H          -11.47787013215941        0.93385726887942        0.86292032306072
H          -10.22906744050362        4.91288382602342        2.87915954079715
H          -10.19720626183868        3.81999776518882        4.27544941423669
H          -11.66343363539866        4.70847980931333        3.87911800753730
H          -13.00137926983471        4.21326426966334        1.91924226563913
H          -12.62821408777679        2.86586308698778        0.84708785362373
H          -11.61256598394553        4.30541104431296        0.83102246857714
H          -12.92781741472185        2.61422655512457        3.92409259149322
H          -11.48115435929005        1.63960125579817        4.20610241436022
H          -12.53985856082696        1.27507787703169        2.84573047200915
H           -8.54955451915632        3.37792644426799        2.81425403800556
H           -6.74768603310015        2.15069019306417        1.75383792176548
H           -5.77128885848254        2.16553247284176       -0.47439687194049
H           -2.30966890930162        2.54410551477862       -1.20831378678759
H           -3.80411156399783        3.40648605507559       -0.80044686997413
H           -2.65865100011488        2.95057222615653        0.46523872140282
H           -2.47479066762615        0.30972620111749        2.47190802001679
H           -1.26439950299456        0.33550494401613        4.61242998788318
H            1.20644922969450        0.26726802731955        4.62965607505266
H            2.44415711142300        0.19966912705425        2.50583144067372
H            3.80521133807965        3.42179120657454        0.54628368229230
H            2.68985691674291        2.93216069359379       -0.73345066369405
H            2.29677782219614        2.57842137296957        0.94249442551638
H            5.77434716171718        2.16282794050774        0.30184847171591
H            6.59915556468475       -2.01781613420960        1.90866667995906
H            8.31072224641728       -3.32378753598486        3.02371367259542
H           12.40227686408812       -3.18544867750559        1.04077130819031
H           12.69240511838425       -4.50201230541842        2.17536341179799
H           11.29236695707860       -4.55242625672965        1.09867521864647
H           11.36648439433046       -1.72816771138185        4.34420163683527
H           12.45006483730661       -1.51053732744461        2.97204374797435
H           12.73431283337774       -2.82295738223005        4.11353520458310
H            9.87636246464882       -4.96174285416994        3.16859777094888
H           11.32524797050395       -4.81728905249766        4.15775839793848
H            9.92844871410106       -3.80812383564740        4.51439433603614
H           11.40335187547483       -1.16649021366295        0.98889797428731
H           11.51663025087762        0.85074502956804       -0.77206898607110
H           11.84731757139795        4.49414569202309       -3.93264036975863
H           10.37451794123564        4.74992405796794       -3.00289748148273
H           10.39337311938202        3.59382227437835       -4.34758204485771
H           11.67086601934204        1.41595084008741       -4.12599192577671
H           12.66946994955576        1.11425330274244       -2.70598798876237
H           13.10502597611258        2.40349603775197       -3.82599483702654
H           12.66923575262325        2.78902857170282       -0.77764151231259
H           13.09380851016297        4.08884012946573       -1.88901312432765
H           11.65744301832115        4.22847914980054       -0.86973159171243
H            8.68363477259669        3.23069537279888       -2.93242438534836
H            6.83325404484697        2.05465309709757       -1.89701263347952
H            5.63049224409747       -2.05158755936953       -0.33455221679332
H            2.30302975399361       -2.49053792223474        0.49663630488107
H            2.28779965685638       -2.25862670482684       -1.24484189136842
H            3.59234360550704       -3.19032034429992       -0.49360400301958
H            2.47719220594124        0.24997852318337       -2.64869876208173
H            1.26702683886266        0.22950413300985       -4.78991026814649
H           -1.20374738715489        0.16353998534241       -4.80599214627101
H           -2.44197452682800        0.14307110357329       -2.68138767640390
