144
 energy: -190.800073196330 gnorm: 0.000123326167 xtb: 6.7.1 (edcfbbe)
C           -2.98486295678395       -1.51429178080554        1.84545954893002
C           -3.76484744411604       -0.74585727522571        0.82091805992782
C           -5.14736113702482       -0.74087783902856        0.86267926858881
C           -5.87947438004155       -0.01970009632996       -0.07717594206860
N           -7.27815941460375       -0.00826970798174       -0.02293460503714
C           -8.09321668619812       -1.11468256563177        0.10562516252813
C           -7.77241077441556       -2.46406208253164        0.14187961287214
C           -8.80535564889449       -3.37340000200223        0.24812578988621
C          -10.15296805283841       -2.99279121808673        0.31111878421596
C          -11.21790912123673       -4.07295108717383        0.43890727115157
C          -12.63562444422350       -3.49730579546781        0.51339146757226
C          -10.96520549064517       -4.88119464085718        1.72074405359325
C          -11.14390403380423       -5.00060208937421       -0.78336915817398
C          -10.46259957845420       -1.64192481432188        0.24231494329549
C           -9.44409102832865       -0.70574448085882        0.13583773084938
C           -9.43606806559612        0.72932327564017        0.02553885271883
C          -10.44253198268167        1.68430689544078        0.02224017750024
C          -10.11615809089694        3.02975504358853       -0.07079616659762
C          -11.16768840419839        4.13030919988318       -0.08159236553672
C          -11.03600591269158        4.94240680448412       -1.37898332073153
C          -12.59632318815434        3.58209844692055       -0.00828558032242
C          -10.94654936072077        5.04784681488943        1.13064786827234
C           -8.76218811274664        3.38519231247337       -0.14244797106653
C           -7.74078311179457        2.45683945354652       -0.14032560924710
C           -8.08112463597252        1.11341495996494       -0.07390879608843
C           -5.20867799786699        0.69250673388999       -1.06808477887799
C           -3.82606270244745        0.69161374758654       -1.11768837545421
C           -3.11134040584589        1.45773462423100       -2.19050575202235
C           -3.07650010773711       -0.02514407639443       -0.16977031522128
B           -1.50793856475477       -0.01227829598480       -0.20268544189863
C           -0.70686770120236        1.08225497867368        0.51961263551922
C           -1.38312032957344        2.11143976580160        1.20151472100810
C           -0.69836184748344        3.10793509133572        1.85350402050881
C            0.69911550223830        3.10759663547726        1.85395906148373
C            1.38388842233656        2.11112648802856        1.20193545231128
C            0.70768454175623        1.08266348126517        0.51887534800264
B            1.50851932903956       -0.01003803629066       -0.20656454233788
C            3.07718403447495       -0.02144662522197       -0.17673411443384
C            3.82434667893020        0.71869871838222       -1.10851590442429
C            3.10717787215787        1.50796248461055       -2.16280389839646
C            5.20705904967489        0.72152533668011       -1.06011680593222
C            5.88021992645019       -0.01446399311595       -0.08851032895869
N            7.27906994131719       -0.00204845687060       -0.03488960730708
C            8.07981149222742        1.12218290540764       -0.04874934543106
C            7.73660159165389        2.46618615413326       -0.07651493425106
C            8.75579168198798        3.39637099554288       -0.04381878592726
C           10.11013910603014        3.04178270032778        0.02555899021909
C           11.15907321743410        4.14450829580710        0.05374202151481
C           11.03816413697923        4.98708275921339       -1.22510414536123
C           10.92396648864640        5.03213562575538        1.28542020140906
C           12.58814772337410        3.59768468478179        0.12841383441579
C           10.43930779821544        1.69484939176260        0.07785279296181
C            9.43515203200072        0.73794653780669        0.04481100144623
C            9.44585706448123       -0.69986126078237        0.10984496994662
C           10.46587944759281       -1.63723047626515        0.18804867782250
C           10.15853978264605       -2.99016747533081        0.21092797385870
C           11.22535276324067       -4.07237529979165        0.29962840738757
C           10.97390600526023       -4.92871522676959        1.55003773511000
C           12.64202178579149       -3.49745319096019        0.39615960121204
C           11.15308744458932       -4.95351272222108       -0.95678129981889
C            8.81165355501904       -3.37095483429432        0.13415371472157
C            7.77725372109636       -2.46054275830908        0.05571425992566
C            8.09588367209571       -1.11019326155796        0.06253476906724
C            5.15068321021596       -0.76019084022415        0.83395396292887
C            3.76808165340429       -0.76468377157474        0.79542914029856
C            2.99131765162066       -1.55682442100438        1.80425792736523
C            0.70750242059205       -1.09349207603690       -0.94469321044619
C            1.38358426181873       -2.11518830037185       -1.63794274591360
C            0.69845924332091       -3.10577366940676       -2.29857222822734
C           -0.69906930529554       -3.10838129765260       -2.29435353041349
C           -1.38384294340416       -2.11995930684497       -1.63012232209010
C           -0.70729777360890       -1.09534486946072       -0.94169201282996
H           -3.64531647246596       -1.99815236315683        2.56167501881669
H           -2.30875120048507       -0.84824540143794        2.37931712514607
H           -2.37407171536127       -2.27305128469474        1.35798748340627
H           -5.67034895859446       -1.27288938615079        1.64475048956065
H           -6.74823978595865       -2.79953157582155        0.07843147463222
H           -8.54980908386987       -4.42159243880620        0.27896829618567
H          -12.88311944566421       -2.94626255535018       -0.39115827621189
H          -13.35129781643213       -4.31077868577110        0.61606167859097
H          -12.74701641251561       -2.84159679970121        1.37412297357422
H           -9.99581631252624       -5.37128341382903        1.69770157675870
H          -10.99612937048662       -4.22749213818522        2.59054123999602
H          -11.72989069125404       -5.64658214480173        1.83697978473938
H          -10.17785624100938       -5.49335068906215       -0.85074883208012
H          -11.91343286424395       -5.76714423584150       -0.71825368970522
H          -11.30010517047131       -4.43092291551018       -1.69755386804163
H          -11.48228915739978       -1.29581051448062        0.26502258893529
H          -11.46574928299837        1.35688303250109        0.09913141323193
H          -11.16890789939784        4.29492686872137       -2.24377508615466
H          -10.06100968721402        5.41581033456849       -1.45495038706657
H          -11.79521416803132        5.72125888861760       -1.41131737474669
H          -13.30251578621787        4.40993479462902       -0.02890198721338
H          -12.75697655557093        3.02823060020235        0.91396525824511
H          -12.81189038111219        2.93593797595425       -0.85635374775786
H          -11.70599569560844        5.82678830172262        1.15385681593665
H           -9.97116792246444        5.52529135418144        1.09505874895281
H          -11.01126487915072        4.47410361271585        2.05334877205387
H           -8.49154288519023        4.42867727869940       -0.19637254436227
H           -6.70949646482802        2.77393345860898       -0.17713912808656
H           -5.78059191858356        1.22658083503682       -1.81373133176444
H           -3.81390275163259        1.89976022732444       -2.89359856615294
H           -2.51166800773399        2.25090514998834       -1.74523533310925
H           -2.43070568619628        0.80203475422580       -2.73097540393641
H           -2.46541343774244        2.11166793235030        1.20760163768368
H           -1.23831586162589        3.89123729913106        2.36913695835677
H            1.23908329964135        3.89061871865382        2.37001058893390
H            2.46617311708600        2.11115110261755        1.20856595414778
H            3.80795600808668        1.96065962572080       -2.86088581925785
H            2.42119524682347        0.86526672573205       -2.71205116687710
H            2.51295054611954        2.29498908191878       -1.69968157506691
H            5.77728458093745        1.27556560614647       -1.79240538447082
H            6.70476936692988        2.78186280074708       -0.11007943098990
H            8.48307495046261        4.44043637468192       -0.06804143104326
H           11.18085501975095        4.36024301602237       -2.10339353497998
H           10.06262062440191        5.45969850008707       -1.29924239128882
H           11.79571689481358        5.76818172177968       -1.23160208002141
H           10.97966702473186        4.43631732812909        2.19460903781069
H            9.94858997244278        5.50961575590199        1.25128693475338
H           11.68220263528159        5.81099053122853        1.33552610368956
H           12.73919938686525        3.01851114911057        1.03664277440645
H           12.81544411711943        2.97607179049818       -0.73477397892930
H           13.29243892420169        4.42732623410675        0.13919222794522
H           11.46285814486560        1.36738843579737        0.15027604125969
H           11.48492794018874       -1.29027015063083        0.22418394443282
H           10.00612732408017       -5.42065899343371        1.50771683633631
H           11.00177626673576       -4.30771055643414        2.44350983647733
H           11.74093112301320       -5.69547200313514        1.63848853657226
H           12.75165819920106       -2.87322177220999        1.28018246553436
H           12.88944844565714       -2.91352948620837       -0.48752181656018
H           13.35883504192308       -4.31303188094186        0.46986104654718
H           11.30561089728620       -4.34921082718567       -1.84907972971731
H           11.92557646158616       -5.71906133571722       -0.92168739934039
H           10.18874160798167       -5.44700200353430       -1.04124394088740
H            8.55803743072460       -4.42006676882250        0.13041918198449
H            6.75367547934086       -2.79542846129539       -0.01954081983535
H            5.67585379426512       -1.31173644222362        1.60090376182027
H            2.30863169535349       -0.90541148065873        2.34768334204505
H            2.38778018090263       -2.31191861284434        1.30229241426439
H            3.65375580035935       -2.04803400124745        2.51360805712156
H            2.46589178233388       -2.11416543297594       -1.64566105243325
H            1.23816649724009       -3.88281535947100       -2.82382782372275
H           -1.23903916437554       -3.88751495624813       -2.81622214999506
H           -2.46617402455904       -2.12266541417128       -1.63162702454796
