  70
        -99.20456044
 C          6.2968022876        0.3521508937        0.4496812191
 C          4.8682251871        0.2499044894        1.0186857334
 C          4.8997637505        0.3972210174        2.5525471152
 C          4.3052061829       -1.1124677398        0.6796151889
 C          4.9464699572       -2.2567624803        1.1228018083
 C          4.4579428115       -3.5259598884        0.8585079488
 C          3.2729746669       -3.6664856724        0.1365527736
 C          2.6100143248       -2.5526318580       -0.3129920876
 C          3.1142571550       -1.2618178307       -0.0682868348
 N          2.4345363694       -0.1626306468       -0.5385094190
 C          1.2008018584       -0.3568346745       -1.2180033498
 C          1.1937268999       -0.7406130593       -2.5794366486
 C         -0.0179498878       -0.9081000255       -3.2257105190
 C         -1.2139954582       -0.7127602169       -2.5646925672
 C         -1.1979866403       -0.3311358962       -1.2019190538
 N         -2.4192687111       -0.1212663771       -0.5072399836
 C         -2.8169877188        1.1665286548       -0.2349953494
 C         -2.0566390830        2.2523786511       -0.7149267084
 C         -2.4130691249        3.5447317213       -0.4330328012
 C         -3.5498477837        3.8017268681        0.3351754597
 C         -4.3208606496        2.7391518216        0.7828924522
 C         -3.9914233980        1.4234141328        0.5134599256
 C         -4.8860537860        0.3041210316        0.9962598448
 C         -6.2827157107        0.4921111866        0.3722488997
 C         -4.9819230119        0.3725089756        2.5330389219
 C         -4.3600133489       -1.0598218292        0.6093257692
 C         -5.0569158711       -2.1987899293        0.9725864085
 C         -4.6028155224       -3.4722930661        0.6656460352
 C         -3.3946042956       -3.6213772040       -0.0157997788
 C         -2.6781645146       -2.5134258751       -0.3891519120
 C         -3.1488654929       -1.2159017068       -0.1058953529
 C          0.0097385780       -0.1566072666       -0.5430366479
 C          2.8800965182        1.1215826917       -0.3317242573
 C          2.1784543192        2.2047351205       -0.8960510873
 C          2.5795606266        3.4970898345       -0.6784280092
 C          3.7007327010        3.7534333650        0.1118742337
 C          4.4126842188        2.6904101219        0.6461663899
 C          4.0395439414        1.3744675595        0.4390959872
 H          6.2717393318        0.2442250473       -0.6329275335
 H          6.9330894146       -0.4275818789        0.8585273923
 H          6.7399136671        1.3146819352        0.6887978454
 H          3.8898009711        0.3269514532        2.9517466769
 H          5.3166443851        1.3582894544        2.8398736545
 H          5.5025290630       -0.3857564035        3.0038475626
 H          5.8572546797       -2.1679499339        1.6959388316
 H          4.9859237807       -4.3958838236        1.2164775706
 H          2.8740684508       -4.6489387073       -0.0655145048
 H          1.6884303513       -2.6605935430       -0.8629192229
 H          2.1304454666       -0.8872720372       -3.0922533451
 H         -0.0276821860       -1.1954882601       -4.2671205461
 H         -2.1605108165       -0.8372313399       -3.0657877607
 H         -1.1864975507        2.0545652310       -1.3201505789
 H         -1.8159180219        4.3621599813       -0.8077636323
 H         -3.8346730065        4.8154255954        0.5685314600
 H         -5.2084501113        2.9586802813        1.3572992505
 H         -6.7008915135        1.4566062939        0.6455430197
 H         -6.2124120062        0.4426502447       -0.7125789223
 H         -6.9643013780       -0.2839098001        0.7087639015
 H         -5.6350989076       -0.4067919364        2.9150824523
 H         -3.9947323582        0.2394343852        2.9711173224
 H         -5.3732439659        1.3337546880        2.8535043803
 H         -5.9851500800       -2.1041066494        1.5159696211
 H         -5.1738877728       -4.3381055133        0.9617409149
 H         -3.0200929534       -4.6073774600       -0.2455486771
 H         -1.7384025412       -2.6301508967       -0.9051713517
 H          0.0200401894        0.1406330204        0.4962027227
 H          1.3194854502        2.0043096523       -1.5168246778
 H          2.0291021651        4.3139198108       -1.1200210378
 H          4.0188481495        4.7673258552        0.2968643208
 H          5.2881668693        2.9082740039        1.2395715587
