72
 energy: -119.824684156114 gnorm: 0.000050495298 xtb: 6.7.1 (edcfbbe)
C            6.75787321969973       -3.29912429153262       -1.03777659512576
C            7.90704507442732       -2.54345492465976       -0.79911083347164
N            7.88741814210847       -1.29220104514732       -0.40541966209296
C            6.71193231162501       -0.69406253185936       -0.21801745321592
C            5.49046222442217       -1.36405640907346       -0.42933605873561
C            5.53344643547676       -2.69767106401341       -0.84921378260855
C            4.23487332790857       -0.68189991175075       -0.21471782697992
N            3.10671871434302       -1.33681941919991       -0.41924076315302
C            1.95700018944406       -0.68137384426905       -0.21361913042487
C            0.72897326689650       -1.33130401303616       -0.44223105859151
C           -0.45841257006023       -0.67532494077622       -0.24242723539228
N           -1.67113755445835       -1.31870410569144       -0.50343053443995
C           -2.11837507801643       -2.47343090087119        0.11773368004430
C           -1.43822941070447       -3.34366054622636        0.95505214304319
C           -2.13974875303340       -4.41310763662905        1.47965293625849
C           -3.48602708369728       -4.61247621049087        1.18620663868392
C           -4.17042641381378       -3.74063185713692        0.36249973304001
C           -3.48670125383221       -2.66073927891245       -0.17800215419678
C           -3.87601265855417       -1.57471327237395       -1.03481232104489
C           -5.06703494320949       -1.21945559798513       -1.65174622775252
C           -5.08570851865073       -0.09633751991961       -2.45547776486826
C           -3.92919306414428        0.64500742912379       -2.68056069119979
C           -2.73127786379411        0.30704924536556       -2.08079228464733
C           -2.72522129504117       -0.77935259912290       -1.22026484170774
C           -0.45840267156146        0.67560144423304        0.24168416447447
N           -1.67114025065726        1.31881110341747        0.50299622337902
C           -2.72522876619756        0.77892048290912        1.21944768616196
C           -2.73104811460724       -0.30755829581556        2.07987763767216
C           -3.92906637640873       -0.64635813261127        2.67896157721464
C           -5.08593847939331        0.09425121165702        2.45328777079210
C           -5.06743067874404        1.21773410353601        1.65005724953606
C           -3.87624239011984        1.57394742966889        1.03399419455562
C           -3.48690201740648        2.66075868841655        0.17818811686329
C           -4.17047774821763        3.74148799178654       -0.36082547300669
C           -3.48587693443441        4.61455748229305       -1.18307259910056
C           -2.13963375603335        4.41539461945219       -1.47679823736485
C           -1.43827645405961        3.34508929245442       -0.95371182539126
C           -2.11848965756671        2.47389390295126       -0.11746193616968
C            0.72902100796074        1.33160741960451        0.44126644147401
C            1.95702705821477        0.68169300846944        0.21246560522953
N            3.10679616560834        1.33706629799480        0.41809299325843
C            4.23491363049045        0.68202679071640        0.21372471519544
C            5.49056877086770        1.36394307883778        0.42874630231996
C            5.53368763743513        2.69762247266770        0.84840498292344
C            6.75817192606779        3.29872882391203        1.03770644343601
C            7.90727391727439        2.54264278111747        0.80002871387747
N            7.88752414564787        1.29136205411527        0.40643207287396
C            6.71198362039218        0.69357715520779        0.21825402113330
H            6.83347004579233       -4.32575323114392       -1.36111823750329
H            8.89146131390838       -2.97305692590520       -0.93368208491328
H            4.60333471370250       -3.21982575991383       -1.01455960828489
H            0.74362099584607       -2.34473289315369       -0.81202667100880
H           -0.39784331113011       -3.19019349992852        1.20073330400727
H           -1.63210766016958       -5.10696492681530        2.13329534166085
H           -3.99933632505903       -5.45981251748846        1.61571692238067
H           -5.21703925052321       -3.88822682949136        0.14411292002929
H           -5.95643016909424       -1.81339457780798       -1.50640655785971
H           -6.00507309671098        0.20355308054263       -2.93560564987045
H           -3.96502896767156        1.50047721923502       -3.33826739180000
H           -1.83222830473453        0.86949938592632       -2.28329461569974
H           -1.83174137345634       -0.86943916584916        2.28278657716091
H           -3.96471006085258       -1.50194441589512        3.33652709595317
H           -6.00542442916155       -0.20643485990370        2.93266967175654
H           -5.95707815834072        1.81120580246635        1.50442283457590
H           -5.21707325370279        3.88894060644967       -0.14223653208062
H           -3.99899773000143        5.46274263751075       -1.61115524057042
H           -1.63187442680868        5.11013563780870       -2.12940853904967
H           -0.39790672645538        3.19184737705916       -1.19958648070519
H            0.74372615708156        2.34499769171597        0.81116002347809
H            4.60362831217244        3.22009747361683        1.01303321717270
H            6.83386654739676        4.32539683049561        1.36090126195019
H            8.89173312806464        2.97192889967663        0.93529368647456
