72
 energy: -119.781272391367 gnorm: 0.000121567882 xtb: 6.7.1 (edcfbbe)
C            6.42294525288920       -3.22800560186538        1.22536993285772
C            7.58519811241349       -2.49454900074173        0.94860700497692
N            7.57184136509296       -1.27230704636513        0.48570063006763
C            6.40347983197483       -0.67221129033884        0.25743942017684
C            5.16677319856080       -1.32020986404200        0.50093167303255
C            5.20766096145892       -2.63407032889870        0.99904639452185
C            3.92581568332103       -0.66769663400772        0.25116798602536
N            2.76771697989572       -1.27736896584723        0.46940307325335
C            1.59856764618744       -0.68014021856900        0.24866612601515
C            0.37990371664115       -1.29980576240018        0.49596810329226
C           -0.82822099165723       -0.65303905774745        0.26280030367795
N           -2.03373774640680       -1.30689432102121        0.54831051859691
C           -3.09141730186344       -0.75713785623242        1.24776634130011
C           -3.11022539013661        0.35950083384600        2.06936382208296
C           -4.31257683172594        0.70717684912317        2.65395916643243
C           -5.46207473549515       -0.05186521101148        2.45162231095036
C           -5.43183359069434       -1.20127592587630        1.68578386233160
C           -4.23635149790927       -1.56714986543945        1.08429740078620
C           -3.83675489091312       -2.67323210787223        0.25870862289530
C           -4.50720803416567       -3.77679319836303       -0.24895718594396
C           -3.81266908515409       -4.66371770982774       -1.04840757685386
C           -2.46918525224937       -4.45644195238591       -1.35006277786089
C           -1.78063390707341       -3.36329965351827       -0.85870956803534
C           -2.47061775492973       -2.47721429490666       -0.04527304417968
C           -0.82837153430308        0.65195246574328       -0.26617197736204
N           -2.03402231852525        1.30554053994419       -0.55169654343768
C           -2.47104680408187        2.47581138005682        0.04191048356185
C           -1.78108095138656        3.36214459437514        0.85508154734538
C           -2.46975087465552        4.45522435225034        1.34641622208439
C           -3.81334513184691        4.66217093026369        1.04503347142294
C           -4.50788221849264        3.77495774031545        0.24591003511792
C           -3.83730346979074        2.67146476793750       -0.26175003297698
C           -4.23685099432722        1.56519325052107       -1.08710292177806
C           -5.43243224450957        1.19891541992743       -1.68815667816143
C           -5.46259379901210        0.04942470985759       -2.45387000386991
C           -4.31293099409992       -0.70927053677413       -2.65656664781684
C           -3.11048698958585       -0.36119344234890       -2.07239553760857
C           -3.09175531944856        0.75547232632210       -1.25084619501688
C            0.37961581884314        1.29910672453446       -0.49903107971219
C            1.59837091215848        0.67992580199562       -0.25106343376453
N            2.76736963276783        1.27782599247473       -0.47091030121527
C            3.92567469354726        0.66896061157481       -0.25117951771788
C            5.16640437332994        1.32255699691728       -0.49910461237650
C            5.20691738153044        2.63610773925349       -0.99810148465357
C            6.42203037131609        3.23128957089946       -1.22203543396306
C            7.58449421459847        2.49949079372392       -0.94178169413179
N            7.57148415228143        1.27745569364429       -0.47829287921577
C            6.40329872561783        0.67604138568549       -0.25265034382530
H            6.49214867280173       -4.23494540875922        1.60619003274252
H            8.56415589863515       -2.92542103555471        1.11221298043797
H            4.27270327643638       -3.14114367225903        1.18937509945716
H            0.38254712535389       -2.29352029152251        0.91517365645979
H           -2.21665023584929        0.93671806599517        2.25276609621743
H           -4.35839430146430        1.58498855484969        3.28096519320578
H           -6.38555299732198        0.25640449385863        2.91846148200665
H           -6.31655989033354       -1.80601953345968        1.55691849011818
H           -5.55143493056898       -3.93214233659154       -0.02426434693892
H           -4.31606597379105       -5.52946543475586       -1.45228806370764
H           -1.95436577203765       -5.16288415416848       -1.98442077188836
H           -0.74280419045676       -3.20246298274991       -1.11043073301916
H           -0.74317392502916        3.20156348180672        1.10663951664179
H           -1.95493928702341        5.16185282122224        1.98057350043849
H           -4.31683000840095        5.52787842983522        1.44888904253802
H           -5.55219439056547        3.93004224131119        0.02143090666980
H           -6.31728474270520        1.80342452094215       -1.55905916942521
H           -6.38614298687429       -0.25916807008416       -2.92035769145463
H           -4.35869771118221       -1.58714455994486       -3.28349009270705
H           -2.21679970479198       -0.93815248442535       -2.25605663714888
H            0.38206497987677        2.29280591086682       -0.91827107540469
H            4.27181401278054        3.14191572786996       -1.19102141137803
H            6.49095171836915        4.23796642446539       -1.60358510401466
H            8.56332216438063        2.93154015695318       -1.10300918219222
