72
 energy: -119.781261833500 gnorm: 0.000066783900 xtb: 6.7.1 (edcfbbe)
C            6.42217952738023       -3.24464005036448        1.19248921189659
C            7.58494486301304       -2.51177312346250        0.91638639361896
N            7.57244411312625       -1.28609978807381        0.46255645800845
C            6.40445655418012       -0.68191213244033        0.24311459287330
C            5.16731092992321       -1.32911495722671        0.48636286271263
C            5.20730648811587       -2.64650513220202        0.97516193593061
C            3.92683732323680       -0.67271442013657        0.24446962680808
N            2.76829247134051       -1.28086812430313        0.46460256190229
C            1.59955480330045       -0.68118813225818        0.24831195658268
C            0.38060576131356       -1.29862272856139        0.49994201103991
C           -0.82688892784334       -0.65028948632161        0.26826421039478
N           -2.03330116496225       -1.29877853995533        0.56175848428726
C           -3.08450481067269       -0.74175030535107        1.26522146686513
C           -3.09472242753200        0.38061375191552        2.07914674375970
C           -4.29142104534217        0.73404772403330        2.67180695559510
C           -5.44371592770190       -0.02466415705138        2.48467020635772
C           -5.42187503847079       -1.17896570792647        1.72593119945958
C           -4.23220242224594       -1.55062273109394        1.11645068993927
C           -3.84114269337010       -2.66326928986394        0.29561762071821
C           -4.51764217422244       -3.76922804312730       -0.19860117861532
C           -3.83092975623442       -4.66360054388350       -0.99649240203138
C           -2.48930504239864       -4.46142088209065       -1.30969181188393
C           -1.79480936346809       -3.36614253413449       -0.83168660344803
C           -2.47688408641357       -2.47238232412194       -0.01995630233738
C           -0.82626033703742        0.65275877821203       -0.26562200705106
N           -2.03220251280890        1.30328286892999       -0.55657041505652
C           -2.47283410583863        2.47747228830385        0.02624198533677
C           -1.78752341390090        3.37053133075471        0.83600850260953
C           -2.47941633901991        4.46673465542133        1.31568130742624
C           -3.82163059225573        4.67048259170620        1.00605415850931
C           -4.51155202366965        3.77681336119578        0.21014641719801
C           -3.83770034531200        2.66998046073426       -0.28572528527248
C           -4.23230200413299        1.55774589233036       -1.10542158506744
C           -5.42407919608328        1.18737536173170       -1.71157093712548
C           -5.44931373088174        0.03304403490062       -2.47015922242423
C           -4.29837336298281       -0.72692407809713       -2.66050703619426
C           -3.09965343494929       -0.37479783022392       -2.07116625432987
C           -3.08596192647941        0.74753420428809       -1.25724983056110
C            0.38196107661821        1.29883188060048       -0.49990526838679
C            1.60029777337142        0.67907516631062       -0.25096008096128
N            2.76974366867182        1.27647270708249       -0.46986823124431
C            3.92760674890543        0.66598950972225       -0.25238714951752
C            5.16885131453961        1.31985419939319       -0.49715576352377
C            5.21044264594539        2.63715505842368       -0.98607930672106
C            6.42603782414580        3.23277688750946       -1.20625441439407
C            7.58793323245414        2.49752361580067       -0.93284556664548
N            7.57395352358336        1.27189060872960       -0.47895550053054
C            6.40524489051947        0.67011410232574       -0.25677926407622
H            6.49067410612667       -4.25447063692964        1.56567874454582
H            8.56360886485444       -2.94600214479705        1.07267698272698
H            4.27203371624961       -3.15304415459114        1.16532529491398
H            0.38284569843593       -2.29161103619791        0.92088932040049
H           -2.19869519467782        0.95745369667859        2.25136456179436
H           -4.33045225912148        1.61597431330775        3.29347861791055
H           -6.36251002073022        0.28781451233870        2.95791652099101
H           -6.30853543676992       -1.78329456237722        1.60892180096974
H           -5.56041212283156       -3.92078154188706        0.03528017927361
H           -4.33908804225387       -5.53136056280726       -1.38994804907255
H           -1.98071842829668       -5.17375299264388       -1.94248834119395
H           -0.75846813002805       -3.20959517629195       -1.09212559880427
H           -0.75067933277789        3.21278301459242        1.09370364039888
H           -1.96827063741543        5.17857224970081        1.94697066364150
H           -4.32768799848185        5.53892063424269        1.40072088921572
H           -5.55476060266121        3.92957860755256       -0.02097469701951
H           -6.30974629719617        1.79268095122633       -1.59211868684982
H           -6.36977918677394       -0.27847686284328       -2.94078153580150
H           -4.34009831080697       -1.60882112901511       -3.28204635837140
H           -2.20472950380759       -0.95261127895049       -2.24584538974780
H            0.38515617999424        2.29181128780533       -0.92086907516997
H            4.27578115666506        3.14562182580260       -1.17408083254689
H            6.49574661596006        4.24245484378326       -1.57963003573485
H            8.56712669949483        2.92972811476621       -1.09141684780543
