58
 energy: -96.269531176092 gnorm: 0.000076129480 xtb: 6.7.1 (edcfbbe)
C           -5.74023783439507        3.54377279011101        0.20214907799481
C           -4.36662018564917        3.44734049291902        0.40670843950617
C           -3.72339282944020        2.22317237330068        0.42065737628873
C           -4.49124958315821        1.08890290876682        0.21489403975011
C           -5.88576432206591        1.17470501208310        0.01790101321765
C           -6.51129824117036        2.41355376665569        0.01029548212603
C           -6.36266133914028       -0.17238203677234       -0.14728682659602
C           -7.61769268035729       -0.70744586496385       -0.39954125406009
C           -7.73507105688491       -2.07533497163367       -0.55309753232400
C           -6.61591824190940       -2.89903790042226       -0.48126264401682
C           -5.35561641897485       -2.38723195316035       -0.22923188775074
C           -5.23682917529968       -1.01912239188369       -0.03544346719676
N           -4.10856823609806       -0.24622788181610        0.19900903616224
C           -2.82599590119073       -0.70072372277079        0.44226422642057
C           -2.59521720304567       -1.86296086175064        1.19574197480270
N           -1.34190461997198       -2.27482114448267        1.40232028184918
C           -0.34384907257930       -1.59443940620095        0.94560336754821
C           -0.54680479464381       -0.38082195083900        0.22815427154624
C            0.54619327401181        0.36761278271635       -0.25082678445985
C            0.34418097316428        1.58419880684615       -0.96345310846720
N            1.34285706633764        2.27213642979009       -1.40746274342678
C            2.59624971435171        1.86401827556248       -1.19321740589471
C            2.82533876361185        0.69492640817189       -0.45022234658685
N            4.10827262185852        0.24244548484109       -0.20381933379557
C            4.49946949398492       -1.08934952648675       -0.24406936730946
C            3.74102670086708       -2.22302566742805       -0.48498705517477
C            4.39203973030084       -3.44310827011943       -0.49254491849615
C            5.76383978799125       -3.53571308091229       -0.27416225204302
C            6.52529353647251       -2.40576416466668       -0.04573022279810
C            5.89204187537331       -1.17088725917796       -0.03167774254791
C            6.35790830602126        0.17511366447393        0.17013222218327
C            7.60542592190404        0.71286462019433        0.45232850314610
C            7.71098177942785        2.07778680207441        0.63774908141973
C            6.58760710854942        2.89588077207516        0.56667137928026
C            5.33466506619014        2.38153761269190        0.28507202224410
C            5.22817146870736        1.01703211318237        0.06137880862122
N            1.81690686881738       -0.02813444175399       -0.00798802189415
N           -1.81773305110040        0.01491155010586       -0.01264326794234
H           -6.20661283529292        4.51763851138162        0.19732502786139
H           -3.79016182023614        4.34756913047075        0.55935796357150
H           -2.65998910893935        2.15063133774111        0.58427273416002
H           -7.57734089841449        2.48722334544234       -0.14212379958066
H           -8.47961261429053       -0.06298669151234       -0.48124277905156
H           -8.70264066290511       -2.51317351121295       -0.74724374458006
H           -6.73070771150756       -3.96214081228240       -0.63140179320603
H           -4.49585082700137       -3.03849525281737       -0.20725824057368
H           -3.38861311526498       -2.41324441958091        1.67056189774592
H            0.66393098949347       -1.94689393817032        1.10557437622017
H           -0.66359495177260        1.93371650268664       -1.12962805133900
H            3.39183250211869        2.42305515799243       -1.65406314064253
H            2.67897023028426       -2.15309174125929       -0.65864629628458
H            3.82344837662980       -4.34309139850309       -0.67352418216443
H            6.23651308397212       -4.50646349597318       -0.28748535078164
H            7.58987871338166       -2.47661570305667        0.11783800602475
H            8.47058424014141        0.07257027012010        0.53259692233600
H            8.67251101938625        2.51747999985350        0.85622674546329
H            6.69318394469215        3.95622624897007        0.74112053891267
H            4.47062500550045        3.02720830779178        0.26306147050201
