  58
        -96.26436720
 C         -5.7516187288        3.5497708338        0.0820279540
 C         -4.3780650852        3.4645597850        0.2921157791
 C         -3.7314832374        2.2434118222        0.3505841778
 C         -4.4960031742        1.1004579035        0.1837506463
 C         -5.8907898874        1.1752868494       -0.0169903009
 C         -6.5195723564        2.4112307149       -0.0700057246
 C         -6.3634994390       -0.1782894850       -0.1351798989
 C         -7.6169028627       -0.7261929464       -0.3664750920
 C         -7.7297567422       -2.0992433653       -0.4712886351
 C         -6.6077445494       -2.9161389099       -0.3722232744
 C         -5.3488214985       -2.3914205220       -0.1408849491
 C         -5.2345433616       -1.0168346327        0.0048107875
 N         -4.1090669789       -0.2327490899        0.2124192725
 C         -2.8247008854       -0.6772284623        0.4670790189
 C         -2.5946837781       -1.8174897431        1.2570776294
 N         -1.3433343762       -2.2322576660        1.4605590144
 C         -0.3447357537       -1.5719517170        0.9770273870
 C         -0.5471322880       -0.3693754024        0.2376505051
 C          0.5467397577        0.3682757256       -0.2532019777
 C          0.3515554338        1.5874132506       -0.9666453340
 N          1.3552429014        2.2748862148       -1.4001356428
 C          2.6055294941        1.8653107905       -1.1782799923
 C          2.8258491006        0.6883944122       -0.4417862340
 N          4.1086783100        0.2310812942       -0.1981909706
 C          4.5072469834       -1.0951493396       -0.2870621435
 C          3.7552193119       -2.2221134045       -0.5753316763
 C          4.4133019029       -3.4372315085       -0.6297774735
 C          5.7849551867       -3.5306993687       -0.4101400019
 C          6.5392587039       -2.4070800445       -0.1309660450
 C          5.8993047450       -1.1772076744       -0.0696041122
 C          6.3556286479        0.1626663124        0.1885052032
 C          7.5962078611        0.6978091515        0.5039046876
 C          7.6897317495        2.0555641744        0.7426883761
 C          6.5620859094        2.8692892530        0.6887534484
 C          5.3157565305        2.3578405898        0.3745779006
 C          5.2214137610        1.0013444395        0.1020764810
 N          1.8159975854       -0.0337177868       -0.0083954038
 N         -1.8182362428        0.0229815330       -0.0100885966
 H         -6.2207630155        4.5215444751        0.0418671736
 H         -3.8046136187        4.3714378283        0.4144393978
 H         -2.6683076078        2.1787980144        0.5187526823
 H         -7.5855137472        2.4766350119       -0.2267746325
 H         -8.4812519477       -0.0881298048       -0.4697704380
 H         -8.6961443158       -2.5469583296       -0.6479197197
 H         -6.7191428058       -3.9842950474       -0.4838015531
 H         -4.4866348552       -3.0383781180       -0.0977888088
 H         -3.3868160819       -2.3435549236        1.7606723231
 H          0.6616946930       -1.9314835757        1.1290071029
 H         -0.6536667812        1.9415415378       -1.1375538815
 H          3.4068197075        2.4252524311       -1.6284189425
 H          2.6931823059       -2.1501504558       -0.7489823304
 H          3.8508706926       -4.3325168175       -0.8492382847
 H          6.2635181267       -4.4972513430       -0.4625854125
 H          7.6034420375       -2.4792102049        0.0346973638
 H          8.4652746002        0.0610905769        0.5692556906
 H          8.6455920151        2.4925441096        0.9896859454
 H          6.6591069646        3.9230706536        0.9032388894
 H          4.4467399733        2.9973120378        0.3639433314
