58
 energy: -96.269373778753 gnorm: 0.000053050614 xtb: 6.7.1 (edcfbbe)
C           -7.75245002627016        1.43143978127227        1.63871274587246
C           -6.64066128775222        2.18048487974462        2.01168428892419
C           -5.37580085100960        1.88433058170285        1.53611857810575
C           -5.24467712248949        0.81794413678313        0.65918541671085
C           -6.36286757137398        0.02815293244326        0.30855807848516
C           -7.62277485512895        0.34438414142278        0.79619715873091
C           -5.87372760108949       -1.03319001661613       -0.53019318928177
C           -6.48782561185856       -2.09992012951200       -1.17142043139919
C           -5.70607563028944       -2.96038374888161       -1.91782624147448
C           -4.33285432759503       -2.76282157345611       -2.03307795830220
C           -3.70085158045500       -1.70527191719549       -1.40486203406156
C           -4.47977637978520       -0.84772515165750       -0.64564972413129
N           -4.10941567579836        0.28789540649757        0.06313253356667
C           -2.83057223044505        0.81238161078584        0.09388501471090
C           -2.60807270038020        2.19774877611518        0.05240528686369
N           -1.35734180829758        2.66429737621048        0.08876040141429
C           -0.35434931185100        1.85201093433002        0.12952369942416
C           -0.54927278750372        0.44120353347637        0.12646826391007
C            0.54935738567886       -0.44078759802921        0.12790578405646
C            0.35443059327510       -1.85155444810205        0.13625208680156
N            1.35737668875665       -2.66402994684541        0.09814421945195
C            2.60810922885487       -2.19759304285339        0.05963899650864
C            2.83062930278303       -0.81211806418031        0.09594949275503
N            4.10948955273462       -0.28777515568615        0.06295256018902
C            5.24479984886231       -0.81550992459926        0.66096065044831
C            5.37602710642045       -1.87864103423700        1.54182139748699
C            6.64091316756433       -2.17291329569989        2.01848148275770
C            7.75263033420228       -1.42514051195911        1.64275162587481
C            7.62285437766499       -0.34123274571522        0.79620508755347
C            6.36291864838454       -0.02693352199124        0.30738991465644
C            5.87368175633638        1.03124153912046       -0.53529362356840
C            6.48768698622863        2.09562619977921       -1.18049526618991
C            5.70586457302970        2.95321711043934       -1.93012511578729
C            4.33266127814243        2.75509318816122       -2.04465320361415
C            3.70074819138191        1.69984971973078       -1.41248074781830
C            4.47974645568378        0.84522114123470       -0.65005995400461
N            1.81720727653682        0.02958270358841        0.12705500268095
N           -1.81711327289023       -0.02912882825473        0.12778732700068
H           -8.72391918880157        1.69684550700093        2.02781803706686
H           -6.76496279720924        3.00890675029013        2.69298985358145
H           -4.52188666492384        2.45807760921115        1.86090832788710
H           -8.47884625988255       -0.25503416703325        0.52644948246687
H           -7.55340268179012       -2.24951850613446       -1.08610581866907
H           -6.16352876404485       -3.79794492087747       -2.42297325374050
H           -3.74770452847061       -3.44911082150393       -2.62688217875109
H           -2.63740526314080       -1.55245660111646       -1.49873737241767
H           -3.40644996089815        2.91082475730989       -0.05551649735418
H            0.65143319338224        2.24183482732856        0.17366674616184
H           -0.65134186140084       -2.24121030468828        0.18219913036269
H            3.40643992595044       -2.91107987705046       -0.04589749604998
H            4.52216933500535       -2.45127899472340        1.86870983612720
H            6.76529170443676       -2.99880257556027        2.70284151758719
H            8.72412012383158       -1.68899427164941        2.03286211076270
H            8.47886535737836        0.25727854660429        0.52425797296919
H            7.55325257281471        2.24562278114356       -1.09575606108504
H            6.16324976794379        3.78890460564697       -2.43842765193141
H            3.74745632877377        3.43909481445274       -2.64103738054051
H            2.63731276218037        1.54659721719815       -1.50576651201643
