58
 energy: -96.322293977264 gnorm: 0.000114723926 xtb: 6.7.1 (edcfbbe)
C           -7.78402491802674        1.49268568838242        1.44404756330062
C           -6.68979018122728        2.25957797320015        1.83112907193636
C           -5.40622875082522        1.95143761023626        1.41650989256853
C           -5.23598885253069        0.85494661632498        0.58465509407593
C           -6.33704003066813        0.04554714111492        0.22711779104279
C           -7.61649237447729        0.37370967383794        0.65205746120446
C           -5.81365508355976       -1.05178330657043       -0.54135784325804
C           -6.40782871420557       -2.14306139170486       -1.16006989735042
C           -5.60170255229046       -3.03790684018043       -1.83585558013963
C           -4.22448417380047       -2.84805697185204       -1.90320682774454
C           -3.61243102441991       -1.76706961502700       -1.29501129824510
C           -4.41622730268404       -0.87310186576150       -0.60690778335018
N           -4.07475256111244        0.30388263899575        0.05457581224786
C           -2.80436575452292        0.83809769789589        0.11766579470118
C           -2.56576189436627        2.22409344149222        0.10266732970337
N           -1.34667962027911        2.71040326156788        0.21059011661826
C           -0.33898518670990        1.85581745821224        0.30345653634250
C           -0.55262368541450        0.47928693559419        0.22078151484983
C            0.55280823149090       -0.47925476310082        0.22313443200635
C            0.33956276237598       -1.85535714975600        0.31368233146798
N            1.34730714969704       -2.71014349205916        0.22313186441830
C            2.56613717599362       -2.22424138302033        0.11086385113183
C            2.80459179467280       -0.83813409225687        0.11985596702766
N            4.07485877529475       -0.30400286219005        0.05422445813813
C            5.23624087395062       -0.85309937464157        0.58602847402359
C            5.40643994328495       -1.94598803575450        1.42260555017334
C            6.68999489375112       -2.25236473711181        1.83853595780064
C            7.78423934843792       -1.48725686112761        1.44793975522746
C            7.61673127488556       -0.37169053868125        0.65114139544879
C            6.33723832080177       -0.04516698000406        0.22504388268062
C            5.81365052085193        1.04932281944606       -0.54735039659452
C            6.40756828453778        2.13856117250165       -1.16989801070218
C            5.60108732355428        3.03172600881486       -1.84749452037321
C            4.22378456741070        2.84191494466994       -1.91331022858445
C            3.61199523783037        1.76276694163871       -1.30158560445090
C            4.41613680272283        0.87069110601972       -0.61144229301657
N            1.78659867545956        0.01478886868850        0.13958032635895
N           -1.78654410696374       -0.01501559900639        0.14078227170245
H           -8.77082570782036        1.76848055603072        1.78412102019005
H           -6.84198530330197        3.11211037449789        2.47602276355740
H           -4.57050327409415        2.54107635432424        1.75959085407315
H           -8.45811807336318       -0.24227149798661        0.37447480447836
H           -7.47701565966204       -2.28321729249242       -1.11234088159289
H           -6.04211121110383       -3.89606997116932       -2.32119950438993
H           -3.61802027285735       -3.56112456934238       -2.44151196568417
H           -2.54537976175471       -1.62620734440640       -1.34936917086903
H           -3.36011852969523        2.94159977695189       -0.04029631577596
H            0.65156173341181        2.26793250245927        0.41836485173933
H           -0.65063986776950       -2.26708539938114        0.43283822654547
H            3.36029561222980       -2.94223840672383       -0.03080770973715
H            4.57061018420474       -2.53386314915178        1.76845990507246
H            6.84213441609739       -3.10165304771646        2.48770802218590
H            8.77104979383627       -1.76156743302760        1.78919112505228
H            8.45845640319823        0.24276557119937        0.37050514894199
H            7.47681247938141        2.27873846852505       -1.12332310024374
H            6.04132054864984        3.88835696284079       -2.33569710439362
H            3.61701943218761        3.55377169423839       -2.45288351947228
H            2.54489049625619        1.62189682640051       -1.35476926505818
