58
 energy: -96.322018547620 gnorm: 0.000049771891 xtb: 6.7.1 (edcfbbe)
C           -7.72671497116435       -2.06005030343179       -0.46113284475346
C           -6.61568679453171       -2.89349746393312       -0.38101500418950
C           -5.34900681581798       -2.39086658172771       -0.14192748802347
C           -5.21378448906054       -1.02167188772359        0.03176611765231
C           -6.33076462506701       -0.16627034110372       -0.09502295837529
C           -7.59289425738161       -0.69145272433100       -0.33295256465024
C           -5.84021265393724        1.17940994810969        0.03570309165318
C           -6.46008012201953        2.42115042571058        0.00919248757100
C           -5.68214072131115        3.55052310152787        0.17226706593328
C           -4.30790492075725        3.44892726806803        0.36893952264546
C           -3.67076080891452        2.22180891673034        0.39979225540018
C           -4.44535731204775        1.08741437088032        0.22230990051269
N           -4.07481103427900       -0.25417388816259        0.24623136838932
C           -2.79753349918833       -0.71927786329293        0.48566989653305
C           -2.54772128307104       -1.89491328081236        1.21542053972470
N           -1.32028890034761       -2.32371151019676        1.42552771390719
C           -0.31765149138111       -1.60829528107766        0.93760975311348
C           -0.54801168092064       -0.41536340318720        0.25139230312663
C            0.54803030758251        0.41560381463536       -0.25114127421598
C            0.31769594995170        1.60860303861957       -0.93724507258538
N            1.32034352557968        2.32396904477365       -1.42521701289331
C            2.54776459335010        1.89507393475705       -1.21523310123565
C            2.79755648959057        0.71940208426779       -0.48553571751653
N            4.07481554284904        0.25420979348529       -0.24617599224598
C            4.44528699624416       -1.08740146408896       -0.22236697987833
C            3.67061713169946       -2.22173998991689       -0.39988771365740
C            4.30769896742185       -3.44889523900854       -0.36918404455951
C            5.68193270760291       -3.55058610820029       -0.17254583696661
C            6.45994633917903       -2.42126798547979       -0.00944492636359
C            5.84014904241536       -1.17949008287417       -0.03585700053836
C            6.33078829022883        0.16615372303680        0.09492142681366
C            7.59295798868618        0.69124148821467        0.33283785738178
C            7.72685905006911        2.05981819778462        0.46114741666975
C            6.61587738274137        2.89333726980831        0.38112501988111
C            5.34916511053733        2.39080548906342        0.14200167663116
C            5.21385308956353        1.02163023781943       -0.03176565892181
N            1.78858759709188       -0.01601461748644       -0.03174220619065
N           -1.78857948368631        0.01617928202041        0.03190204355917
H           -8.69961699682564       -2.49083390145290       -0.64386952110792
H           -6.74102788048296       -3.95754737246404       -0.51508064085024
H           -4.49859035309058       -3.05430120114894       -0.11893951867594
H           -8.44707649613915       -0.03816161359242       -0.42466284126442
H           -7.52728071224434        2.49649630369466       -0.13394637821774
H           -6.14281433074598        4.52687169751236        0.15080085853427
H           -3.72456685039644        4.34820353580426        0.49967022121572
H           -2.60656725797341        2.14851764348485        0.55389677907861
H           -3.34256386952296       -2.46809234037812        1.66927136262782
H            0.68191719507019       -1.97233544344365        1.11759470728580
H           -0.68186717518163        1.97260449116386       -1.11732743987406
H            3.34262157351207        2.46832989215318       -1.66896389737621
H            2.60640925209764       -2.14838545933678       -0.55386560016266
H            3.72429315561755       -4.34813388744196       -0.49987354282099
H            6.14255493647767       -4.52696070872370       -0.15119074842586
H            7.52716244334146       -2.49667707090020        0.13353893882273
H            8.44712421820955        0.03790168294788        0.42433831375082
H            8.69981018597639        2.49054009640914        0.64376112113205
H            6.74128596710077        3.95737012977651        0.51525797450145
H            4.49877175771393        3.05427411266548        0.11922679248838
