  99
       -160.50371453
 C         -7.5393689518       -0.1450137666       -0.2221728921
 C         -6.7930167227       -1.1270359171       -0.8616388470
 C         -5.4191728446       -1.1227668130       -0.7808338516
 C         -4.7502183082       -0.1255205981       -0.0512854180
 C         -3.3232640720       -0.1089223908        0.0171441344
 N         -2.6936459105        0.9393153534        0.6034244814
 C         -1.3932607541        0.9334120632        0.5726646471
 N         -0.6920989879        2.0306868183        1.0436586170
 C         -1.1372666084        3.3439350660        0.9109878642
 C         -2.4273170257        3.8236075193        0.7787905642
 C         -2.5965370512        5.1932034118        0.6546274315
 C         -1.5077766989        6.0602456355        0.6505770598
 C         -0.2152959869        5.5823134153        0.7627489284
 C         -0.0231809185        4.2130933664        0.8934758413
 C          1.1498669756        3.3922909645        1.0123375514
 C          2.5060418146        3.6993032632        0.9392621211
 C          3.4354637473        2.6823139822        1.0303953026
 C          3.0022438562        1.3859403067        1.2970003977
 C          3.7283013880        0.1781573645        1.5544079664
 C          5.0810886117       -0.1303617141        1.5292506914
 C          5.4731328146       -1.4098689171        1.8717760739
 C          4.5365675058       -2.3589993528        2.2707581494
 C          3.1841698494       -2.0684783206        2.3132841473
 C          2.7754811838       -0.8037500072        1.9163999557
 N          1.5085132437       -0.2465444888        1.8585028172
 C          0.3309588474       -0.8358702835        2.3274443830
 C         -0.5557980777       -0.0829608105        3.1036060612
 C         -1.7428868681       -0.6375402974        3.5374680748
 C         -2.0551581972       -1.9528352774        3.2327403795
 C         -1.1523523923       -2.7210097185        2.5135619658
 C          0.0357991960       -2.1747450008        2.0703463032
 C          1.6265528993        1.0632432304        1.4477224208
 C          0.6880143298        2.0564820861        1.1681885565
 N         -0.6163471415       -0.0361586097        0.0528275993
 C         -1.3276109651       -1.0531715105       -0.4701803397
 N         -0.5559220040       -2.1052508437       -0.9347118230
 C         -0.8893441174       -3.4445340895       -0.7595535593
 C         -2.1295900839       -4.0170994578       -0.5450340681
 C         -2.1841060030       -5.3924962192       -0.3861404718
 C         -1.0319649775       -6.1726158015       -0.4288500260
 C          0.2114800377       -5.6004857005       -0.6249259254
 C          0.2896778691       -4.2238019147       -0.7917770682
 C          1.3855979576       -3.3161232124       -0.9901162899
 C          2.7640163261       -3.5127015754       -1.0011358386
 C          3.6015290464       -2.4267739208       -1.1644551559
 C          3.0514667414       -1.1716154853       -1.4123215454
 C          3.6607179611        0.0873355404       -1.7227676821
 C          4.9828006815        0.5037231780       -1.7909916374
 C          5.2465725353        1.8071590491       -2.1654626384
 C          4.2123910043        2.6755438616       -2.5024785273
 C          2.8878715735        2.2775887516       -2.4508900674
 C          2.6108398596        0.9874516154       -2.0239560753
 N          1.3988232148        0.3319095578       -1.8823832177
 C          0.1510220629        0.8252275945       -2.2744598077
 C         -0.7187566502        0.0036198148       -2.9992022793
 C         -1.9755757615        0.4572176715       -3.3460227929
 C         -2.3784279056        1.7374179261       -3.0018964120
 C         -1.4961510361        2.5771844568       -2.3380462843
 C         -0.2374282009        2.1334359816       -1.9845272492
 C          1.6472782065       -0.9606320055       -1.4761032346
 C          0.8109115980       -2.0226447055       -1.1324698494
 N         -2.6239845913       -1.1341452279       -0.5267885878
 C         -5.5168289592        0.8591090154        0.5934310316
 C         -6.8903541738        0.8447792120        0.5051283960
 H         -8.6172552446       -0.1511883931       -0.2900502709
 H         -7.2960871685       -1.8975326845       -1.4291341036
 H         -4.8313035116       -1.8739150203       -1.2854954645
 H         -3.2620249891        3.1434096005        0.7632196586
 H         -3.5938193760        5.5947703312        0.5558552805
 H         -1.6775253886        7.1223691118        0.5530026733
 H          0.6286019741        6.2554009352        0.7530197938
 H          2.8173830007        4.7214416410        0.7903135522
 H          4.4897757416        2.8853183179        0.9303952523
 H          5.8049675664        0.6185130653        1.2470841293
 H          6.5196134173       -1.6758472679        1.8496895093
 H          4.8712053589       -3.3431083314        2.5625744293
 H          2.4847223577       -2.8103402172        2.6626332732
 H         -0.3037724737        0.9329410827        3.3684195552
 H         -2.4297796335       -0.0379849234        4.1157048090
 H         -2.9925462924       -2.3778681526        3.5563848668
 H         -1.3811036127       -3.7503763011        2.2797961081
 H          0.7121304028       -2.7677337280        1.4771771660
 H         -3.0130239888       -3.4022807062       -0.4962696807
 H         -3.1396048337       -5.8675456557       -0.2221132975
 H         -1.1127191835       -7.2420410658       -0.3012042888
 H          1.1039400131       -6.2072612591       -0.6505813549
 H          3.1658574473       -4.5042371943       -0.8621502897
 H          4.6728549625       -2.5454179393       -1.1332512582
 H          5.7824004309       -0.1819120039       -1.5566037067
 H          6.2675256000        2.1553516278       -2.2173231987
 H          4.4465123794        3.6804951217       -2.8200311212
 H          2.1078182393        2.9573009934       -2.7530549123
 H         -0.3997062617       -0.9861308809       -3.2900122048
 H         -2.6477447194       -0.1960573889       -3.8816229019
 H         -3.3708841949        2.0799654173       -3.2502449026
 H         -1.7968568586        3.5807819196       -2.0756121235
 H          0.4258604447        2.7785456544       -1.4318931412
 H         -5.0071146700        1.6178017460        1.1662876705
 H         -7.4694373734        1.6087916845        1.0051351980
