  99
  -159.833329674800       0.677515031944932      !
 C         -7.5393689518       -0.1450137666       -0.2221728921
 C         -6.7930167227       -1.1270359171       -0.8616388470
 C         -5.4191728446       -1.1227668130       -0.7808338516
 C         -4.7502183082       -0.1255205981       -0.0512854180
 C         -3.3232640720       -0.1089223908        0.0171441344
 N         -2.6936459105        0.9393153534        0.6034244814
 C         -1.3932607541        0.9334120632        0.5726646471
 N         -0.6920989879        2.0306868183        1.0436586170
 C         -1.1372666084        3.3439350660        0.9109878642
 C         -2.4273170257        3.8236075193        0.7787905642
 C         -2.5965370512        5.1932034118        0.6546274315
 C         -1.5077766989        6.0602456355        0.6505770598
 C         -0.2152959869        5.5823134153        0.7627489284
 C         -0.0231809185        4.2130933664        0.8934758413
 C          1.1498669756        3.3922909645        1.0123375514
 C          2.5060418146        3.6993032632        0.9392621211
 C          3.4354637473        2.6823139822        1.0303953026
 C          3.0022438562        1.3859403067        1.2970003977
 C          3.7283013880        0.1781573645        1.5544079664
 C          5.0810886117       -0.1303617141        1.5292506914
 C          5.4731328146       -1.4098689171        1.8717760739
 C          4.5365675058       -2.3589993528        2.2707581494
 C          3.1841698494       -2.0684783206        2.3132841473
 C          2.7754811838       -0.8037500072        1.9163999557
 N          1.5085132437       -0.2465444888        1.8585028172
 C          0.3309588474       -0.8358702835        2.3274443830
 C         -0.5557980777       -0.0829608105        3.1036060612
 C         -1.7428868681       -0.6375402974        3.5374680748
 C         -2.0551581972       -1.9528352774        3.2327403795
 C         -1.1523523923       -2.7210097185        2.5135619658
 C          0.0357991960       -2.1747450008        2.0703463032
 C          1.6265528993        1.0632432304        1.4477224208
 C          0.6880143298        2.0564820861        1.1681885565
 N         -0.6163471415       -0.0361586097        0.0528275993
 C         -1.3276109651       -1.0531715105       -0.4701803397
 N         -0.5559220040       -2.1052508437       -0.9347118230
 C         -0.8893441174       -3.4445340895       -0.7595535593
 C         -2.1295900839       -4.0170994578       -0.5450340681
 C         -2.1841060030       -5.3924962192       -0.3861404718
 C         -1.0319649775       -6.1726158015       -0.4288500260
 C          0.2114800377       -5.6004857005       -0.6249259254
 C          0.2896778691       -4.2238019147       -0.7917770682
 C          1.3855979576       -3.3161232124       -0.9901162899
 C          2.7640163261       -3.5127015754       -1.0011358386
 C          3.6015290464       -2.4267739208       -1.1644551559
 C          3.0514667414       -1.1716154853       -1.4123215454
 C          3.6607179611        0.0873355404       -1.7227676821
 C          4.9828006815        0.5037231780       -1.7909916374
 C          5.2465725353        1.8071590491       -2.1654626384
 C          4.2123910043        2.6755438616       -2.5024785273
 C          2.8878715735        2.2775887516       -2.4508900674
 C          2.6108398596        0.9874516154       -2.0239560753
 N          1.3988232148        0.3319095578       -1.8823832177
 C          0.1510220629        0.8252275945       -2.2744598077
 C         -0.7187566502        0.0036198148       -2.9992022793
 C         -1.9755757615        0.4572176715       -3.3460227929
 C         -2.3784279056        1.7374179261       -3.0018964120
 C         -1.4961510361        2.5771844568       -2.3380462843
 C         -0.2374282009        2.1334359816       -1.9845272492
 C          1.6472782065       -0.9606320055       -1.4761032346
 C          0.8109115980       -2.0226447055       -1.1324698494
 N         -2.6239845913       -1.1341452279       -0.5267885878
 C         -5.5168289592        0.8591090154        0.5934310316
 C         -6.8903541738        0.8447792120        0.5051283960
 H         -8.6172552446       -0.1511883931       -0.2900502709
 H         -7.2960871685       -1.8975326845       -1.4291341036
 H         -4.8313035116       -1.8739150203       -1.2854954645
 H         -3.2620249891        3.1434096005        0.7632196586
 H         -3.5938193760        5.5947703312        0.5558552805
 H         -1.6775253886        7.1223691118        0.5530026733
 H          0.6286019741        6.2554009352        0.7530197938
 H          2.8173830007        4.7214416410        0.7903135522
 H          4.4897757416        2.8853183179        0.9303952523
 H          5.8049675664        0.6185130653        1.2470841293
 H          6.5196134173       -1.6758472679        1.8496895093
 H          4.8712053589       -3.3431083314        2.5625744293
 H          2.4847223577       -2.8103402172        2.6626332732
 H         -0.3037724737        0.9329410827        3.3684195552
 H         -2.4297796335       -0.0379849234        4.1157048090
 H         -2.9925462924       -2.3778681526        3.5563848668
 H         -1.3811036127       -3.7503763011        2.2797961081
 H          0.7121304028       -2.7677337280        1.4771771660
 H         -3.0130239888       -3.4022807062       -0.4962696807
 H         -3.1396048337       -5.8675456557       -0.2221132975
 H         -1.1127191835       -7.2420410658       -0.3012042888
 H          1.1039400131       -6.2072612591       -0.6505813549
 H          3.1658574473       -4.5042371943       -0.8621502897
 H          4.6728549625       -2.5454179393       -1.1332512582
 H          5.7824004309       -0.1819120039       -1.5566037067
 H          6.2675256000        2.1553516278       -2.2173231987
 H          4.4465123794        3.6804951217       -2.8200311212
 H          2.1078182393        2.9573009934       -2.7530549123
 H         -0.3997062617       -0.9861308809       -3.2900122048
 H         -2.6477447194       -0.1960573889       -3.8816229019
 H         -3.3708841949        2.0799654173       -3.2502449026
 H         -1.7968568586        3.5807819196       -2.0756121235
 H          0.4258604447        2.7785456544       -1.4318931412
 H         -5.0071146700        1.6178017460        1.1662876705
 H         -7.4694373734        1.6087916845        1.0051351980
  99
  -159.832628126100       0.322484968055068      !
 C         -7.4738044393        0.1296118521       -0.7292621050
 C         -6.7185748559       -0.9021191944       -1.2732139079
 C         -5.3697072277       -0.9902030935       -1.0157339777
 C         -4.7340321710       -0.0362095307       -0.2026444524
 C         -3.3217844294       -0.0932643256        0.0045806995
 N         -2.6915037391        0.9312895079        0.6325429261
 C         -1.3906333316        0.9052096227        0.6374913341
 N         -0.6858727844        1.9952273043        1.1200576100
 C         -1.1413590335        3.3088796275        1.0106696046
 C         -2.4369750704        3.7858131251        0.9395431446
 C         -2.6167203275        5.1553086675        0.8305620186
 C         -1.5327941386        6.0266839020        0.7820968290
 C         -0.2353158658        5.5525086320        0.8367178677
 C         -0.0336191108        4.1834954270        0.9527060158
 C          1.1472193458        3.3687067413        1.0263343606
 C          2.4970950836        3.6877685018        0.9067725882
 C          3.4377893096        2.6796448819        0.9711262800
 C          3.0233668439        1.3812985827        1.2562752387
 C          3.7694842971        0.1831777847        1.5008036638
 C          5.1248768738       -0.1091568882        1.4435266533
 C          5.5412183449       -1.3806391509        1.7869983767
 C          4.6265383161       -2.3369728099        2.2183229647
 C          3.2722375305       -2.0623785749        2.2927054857
 C          2.8379061644       -0.8061751993        1.8952626867
 N          1.5638287999       -0.2631909488        1.8679212928
 C          0.4064514016       -0.8658119039        2.3691547680
 C         -0.4680150315       -0.1246705137        3.1693622607
 C         -1.6322649700       -0.6972300407        3.6402299278
 C         -1.9308246965       -2.0192314242        3.3505886483
 C         -1.0384275673       -2.7748060410        2.6060938358
 C          0.1256240868       -2.2097836402        2.1240417884
 C          1.6558031065        1.0460300350        1.4485854766
 C          0.6996591910        2.0304042945        1.1985336294
 N         -0.6175171664       -0.0719355006        0.1269867754
 C         -1.3324832682       -1.0813753785       -0.4052659879
 N         -0.5628931533       -2.1379075158       -0.8647627953
 C         -0.8783300081       -3.4763637355       -0.6642401827
 C         -2.1071516958       -4.0543641513       -0.4039371791
 C         -2.1443962770       -5.4272875680       -0.2202470610
 C         -0.9866039605       -6.1977183710       -0.2854612619
 C          0.2454354903       -5.6194185037       -0.5306438604
 C          0.3072800958       -4.2450188574       -0.7221489982
 C          1.3878034556       -3.3290596297       -0.9649358871
 C          2.7681617554       -3.5060331359       -1.0150433314
 C          3.5858478585       -2.4094150269       -1.2091601335
 C          3.0138367828       -1.1622280690       -1.4482929188
 C          3.5949637501        0.1063503845       -1.7741830712
 C          4.9073371423        0.5478082275       -1.8680483710
 C          5.1388587909        1.8577267423       -2.2416640059
 C          4.0825148806        2.7082832715       -2.5548688499
 C          2.7670207554        2.2852495892       -2.4790917482
 C          2.5233746825        0.9890399195       -2.0506758671
 N          1.3261258791        0.3141461929       -1.8813515102
 C          0.0608556465        0.7872501089       -2.2425199603
 C         -0.8114097654       -0.0481936707       -2.9484626913
 C         -2.0860433915        0.3817713643       -3.2592671740
 C         -2.5079125631        1.6486973399       -2.8904704688
 C         -1.6252661486        2.5028002916       -2.2446272116
 C         -0.3468690210        2.0850546933       -1.9326959699
 C          1.6055098821       -0.9722844763       -1.4769644964
 C          0.7947039792       -2.0432532759       -1.1023092714
 N         -2.6273832298       -1.1441417049       -0.4946264590
 C         -5.5119829917        0.9925031510        0.3529530340
 C         -6.8605754991        1.0702793840        0.0884745197
 H         -8.5306134518        0.1995371360       -0.9406538927
 H         -7.1941788449       -1.6367007176       -1.9081796731
 H         -4.7715408936       -1.7783165700       -1.4465562896
 H         -3.2690630952        3.1034050365        0.9582110373
 H         -3.6191286466        5.5530185701        0.7795435739
 H         -1.7103042288        7.0885589271        0.6967381247
 H          0.6054484957        6.2282694876        0.7949540699
 H          2.7936259933        4.7123650226        0.7452365830
 H          4.4866977538        2.8909975621        0.8376620666
 H          5.8321575542        0.6461501367        1.1373925573
 H          6.5900146842       -1.6341556090        1.7409772389
 H          4.9807347989       -3.3139138529        2.5112346308
 H          2.5911097726       -2.8090300424        2.6672506471
 H         -0.2247105595        0.8959460742        3.4237705157
 H         -2.3107482432       -0.1074797358        4.2382778010
 H         -2.8498195009       -2.4592611234        3.7056775848
 H         -1.2565756178       -3.8088507976        2.3831557123
 H          0.7944687644       -2.7931858434        1.5132666047
 H         -2.9943120671       -3.4454823424       -0.3417806417
 H         -3.0897864481       -5.9081657932       -0.0188795768
 H         -1.0537745228       -7.2653628660       -0.1366793894
 H          1.1413699409       -6.2200540003       -0.5741546430
 H          3.1886226249       -4.4904957478       -0.8806571664
 H          4.6590868901       -2.5144572348       -1.2065417144
 H          5.7242305762       -0.1231478639       -1.6515206743
 H          6.1518474906        2.2257892896       -2.3105081594
 H          4.2916802492        3.7187357913       -2.8722796474
 H          1.9674821708        2.9507083855       -2.7616646699
 H         -0.4804047526       -1.0302331819       -3.2522209309
 H         -2.7591071602       -0.2815674634       -3.7810034762
 H         -3.5155437854        1.9694489049       -3.1042292656
 H         -1.9415883553        3.4960022487       -1.9619452371
 H          0.3180993015        2.7402045600       -1.3938168086
 H         -5.0329127938        1.7164246859        0.9932053345
 H         -7.4474488907        1.8702893120        0.5180426858
