  49
        -80.71464839
 C          5.8678142725       -0.1067856143       -1.3654782724
 C          5.1909523375       -0.0159087780        0.0036155369
 C          5.5710066785        1.3020230813        0.6813411070
 C          5.6108223503       -1.1901578359        0.8975732330
 N          3.7419371964       -0.0491871550       -0.1754475883
 C          3.0990668756       -1.1190704270       -0.8102629873
 O          3.7084888891       -2.0360652673       -1.3786820050
 C          1.6898539049       -1.0032231469       -0.6753491710
 C          0.7069176376       -1.8703871123       -1.2263581298
 C         -0.6102710462       -1.5866960603       -1.0532147139
 C         -1.0354705908       -0.4415010945       -0.3023120181
 N         -2.3833451895       -0.1624367922       -0.1540060319
 C         -2.9715327352        1.0776152848       -0.3104607979
 C         -2.3971357290        2.2857823452       -0.6890410764
 C         -3.2268080012        3.3875857012       -0.8004914284
 C         -4.5948567775        3.2924208832       -0.5530716512
 C         -5.1794263385        2.0833744959       -0.2059466710
 C         -4.3697519504        0.9662024009       -0.0902718099
 C         -4.6248982708       -0.4173362013        0.2122972329
 C         -5.7688994889       -1.1335050443        0.5199928480
 C         -5.6490317438       -2.4872405714        0.7983207358
 C         -4.4065433957       -3.1183468825        0.7908897807
 C         -3.2495973386       -2.4239381895        0.4854612118
 C         -3.3667830716       -1.0747828038        0.1694170293
 C         -0.0668349308        0.3971335684        0.2900535187
 C          1.2457677380        0.0972704352        0.1131589757
 S          2.6836454822        0.8839512338        0.7680546543
 O          2.7614677093        2.2633895114        0.3774937006
 O          2.8705367516        0.6092448165        2.1671306982
 H          5.5816918629       -1.0354449520       -1.8539514464
 H          5.5598192974        0.7269814863       -1.9919940452
 H          6.9475380363       -0.0849899872       -1.2454609638
 H          5.1214572707        1.3631313521        1.6680854963
 H          5.2191770854        2.1446642158        0.0926506581
 H          6.6525625039        1.3577702584        0.7781684993
 H          5.0868210556       -1.1314740920        1.8491145714
 H          5.3583128776       -2.1274408078        0.4078848788
 H          6.6822397368       -1.1588206118        1.0763292594
 H          1.0384868467       -2.7137864862       -1.8109553032
 H         -1.3684214522       -2.1842643315       -1.5368964078
 H         -1.3425426663        2.3617504313       -0.9045679925
 H         -2.8052978702        4.3373018071       -1.0911012560
 H         -5.2104742299        4.1739559067       -0.6470026445
 H         -6.2426314681        2.0118371808       -0.0356792061
 H         -6.7314925041       -0.6466133842        0.5479697506
 H         -6.5304553525       -3.0610835220        1.0402247293
 H         -4.3435967998       -4.1668234980        1.0377546126
 H         -2.2864093432       -2.9094418285        0.5132922474
 H         -0.3666333171        1.2176741252        0.9233399322
  49
        -80.71456529
 C          5.5867956136        1.2639422665        0.6768832261
 C          5.1850835072       -0.0944449666        0.0981739351
 C          5.4826089529       -1.1968859359        1.1230707044
 C          5.9465731121       -0.3433346726       -1.2048599820
 N          3.7503466396       -0.0796559582       -0.1755174540
 C          3.0974764354       -1.1718913362       -0.7604204440
 O          3.6973252595       -2.1436620149       -1.2421936114
 C          1.6886122252       -1.0121944981       -0.6808636602
 C          0.7025182509       -1.9012116390       -1.1896777991
 C         -0.6135352556       -1.5996853854       -1.0402945175
 C         -1.0351485481       -0.4114913966       -0.3578298502
 N         -2.3831026156       -0.1413311721       -0.1921858286
 C         -2.9972192522        1.0782543371       -0.3968354414
 C         -2.4576559185        2.2707548520       -0.8657090105
 C         -3.3087923410        3.3526782560       -1.0055823473
 C         -4.6642227360        3.2529338914       -0.6973613471
 C         -5.2151186952        2.0577740321       -0.2591008001
 C         -4.3838053580        0.9601785785       -0.1141822432
 C         -4.6037219245       -0.4064807398        0.2794291784
 C         -5.7215135093       -1.1190491934        0.6784430431
 C         -5.5668800994       -2.4510062599        1.0341845123
 C         -4.3152318724       -3.0631832100        1.0128291466
 C         -3.1840979000       -2.3720459826        0.6167739845
 C         -3.3376302630       -1.0469635563        0.2242576784
 C         -0.0641749928        0.4639283952        0.1737179957
 C          1.2475656530        0.1470932761        0.0202655167
 S          2.6855466658        0.9532329708        0.6507467898
 O          2.8154468801        2.2928747036        0.1505965398
 O          2.8179284337        0.7916494304        2.0738469462
 H          5.3061572704        2.0621050097       -0.0047717495
 H          5.0876835310        1.4334707575        1.6261944958
 H          6.6628915802        1.2848791042        0.8313279047
 H          5.2200934037       -2.1646081393        0.7025050900
 H          4.8951038225       -1.0268272307        2.0227011255
 H          6.5385689609       -1.1947225519        1.3793338881
 H          5.6395683688       -1.2956017293       -1.6315791293
 H          5.7321881383        0.4456726670       -1.9217479283
 H          7.0148793717       -0.3684314249       -1.0080414263
 H          1.0317033566       -2.7817503556       -1.7181721801
 H         -1.3736961807       -2.2212939914       -1.4894679504
 H         -1.4134309176        2.3484862794       -1.1263628667
 H         -2.9148364795        4.2903935640       -1.3655163722
 H         -5.2970412023        4.1193150388       -0.8149702589
 H         -6.2692871310        1.9816211509       -0.0412546732
 H         -6.6903106920       -0.6454352547        0.7180900729
 H         -6.4273546430       -3.0213113478        1.3491551178
 H         -4.2237425488       -4.0931340787        1.3211070626
 H         -2.2121999188       -2.8403238799        0.6339852649
 H         -0.3612049293        1.3269490767        0.7491912139
  49
        -80.71429270
 C          5.6026552854       -1.6920596347       -0.5411856641
 C          5.1765579571       -0.4270096084        0.2106715315
 C          5.9190192789        0.7993077351       -0.3337851842
 C          5.4747351164       -0.5808888362        1.7022317771
 N          3.7398050908       -0.2304464023        0.0325637818
 C          3.1666134365       -0.0414505835       -1.2283756783
 O          3.8317317020        0.0290192880       -2.2709654174
 C          1.7530842648        0.0670785478       -1.1224788677
 C          0.8317924567        0.2936171549       -2.1808616350
 C         -0.4996802589        0.3488845034       -1.9159289630
 C         -1.0019389418        0.1792944805       -0.5832302008
 N         -2.3630677792        0.2186208977       -0.3368102436
 C         -3.2496908191        1.1558366588       -0.8274391390
 C         -3.0047093266        2.2785708858       -1.6103271443
 C         -4.0831777809        3.0744091654       -1.9539116031
 C         -5.3727866151        2.7728502820       -1.5198477758
 C         -5.6195734782        1.6741915356       -0.7095855856
 C         -4.5558646603        0.8636848038       -0.3515403915
 C         -4.4337995342       -0.3064990592        0.4766565799
 C         -5.3389015046       -1.0621499500        1.2024470212
 C         -4.8756203371       -2.1802403016        1.8805692000
 C         -3.5347068668       -2.5554956884        1.8226283908
 C         -2.6109980120       -1.8145728996        1.1066049680
 C         -3.0617412883       -0.6725900217        0.4538441839
 C         -0.0940921076       -0.0405490036        0.4759327382
 C          1.2343605411       -0.0751859739        0.1977143087
 S          2.6045719167       -0.3116212763        1.2839799336
 O          2.7787588474        0.7863989657        2.1941814450
 O          2.5975142154       -1.6247160228        1.8714136175
 H          5.0590470677       -2.5519161621       -0.1562066623
 H          5.3833911357       -1.5786294736       -1.5999615379
 H          6.6691032035       -1.8581395595       -0.4158854685
 H          5.5907904150        1.6951371653        0.1882617326
 H          5.7086756043        0.9099859485       -1.3944823555
 H          6.9892022812        0.6756314606       -0.1923863784
 H          5.1557433619        0.3043012860        2.2451116662
 H          4.9457559388       -1.4389764410        2.1067393574
 H          6.5438406733       -0.7212114332        1.8429607125
 H          1.2173506121        0.3907536149       -3.1833417358
 H         -1.2152740127        0.4524324015       -2.7177997015
 H         -2.0041519773        2.5341720854       -1.9229497436
 H         -3.9204412669        3.9508434956       -2.5618019358
 H         -6.1900970335        3.4161044959       -1.8080937670
 H         -6.6172167692        1.4580644187       -0.3596514245
 H         -6.3824528076       -0.7891841622        1.2343531650
 H         -5.5666584204       -2.7799391597        2.4530477268
 H         -3.2097605703       -3.4442462368        2.3407381179
 H         -1.5794215108       -2.1250613787        1.0449042775
 H         -0.4470416344       -0.1118509060        1.4930046379
  49
        -80.71385382
 C          5.2647141238       -1.4107200078        1.1970112040
 C          5.1504485141       -0.2150113144        0.2421143741
 C          6.0273032771       -0.4188712009       -0.9939262892
 C          5.5780407161        1.0637950715        0.9666121584
 N          3.7546665249       -0.0748817904       -0.1660647785
 C          3.0994973330       -1.0630202219       -0.9120922749
 O          3.6906193505       -2.0014466112       -1.4668146690
 C          1.6949362037       -0.8578303612       -0.8923807841
 C          0.7129553556       -1.6617210564       -1.5338287048
 C         -0.6036257183       -1.3704548103       -1.3695597952
 C         -1.0299621692       -0.2774266819       -0.5465590809
 N         -2.3784134814       -0.0705725874       -0.3039593214
 C         -3.0385398865        1.1404258297       -0.3211236789
 C         -2.5652274035        2.3980557558       -0.6785333276
 C         -3.4531512288        3.4579688255       -0.6311233922
 C         -4.7799832173        3.2749601578       -0.2453296725
 C         -5.2660609901        2.0181857881        0.0839135354
 C         -4.3978277638        0.9408851427        0.0389787476
 C         -4.5506098871       -0.4691345044        0.2846113650
 C         -5.6135326809       -1.2627041319        0.6811224633
 C         -5.3937797935       -2.6193051851        0.8715225866
 C         -4.1314772320       -3.1793033937        0.6866501359
 C         -3.0544053392       -2.4068392380        0.2900643376
 C         -3.2752042425       -1.0526225327        0.0665617088
 C         -0.0637498792        0.5335644832        0.0853638798
 C          1.2490789707        0.2281596836       -0.0849909374
 S          2.6755775839        0.9210162873        0.6889040767
 O          2.8872212773        2.2930625358        0.3234587049
 O          2.7121559152        0.6266907463        2.0965412969
 H          4.5945143353       -1.2663326987        2.0416814368
 H          4.9884623248       -2.3228517745        0.6733777709
 H          6.2842430420       -1.5046151464        1.5609321251
 H          5.9500207328        0.4399839133       -1.6561842558
 H          5.6987609249       -1.3047688022       -1.5332286132
 H          7.0632358227       -0.5476577895       -0.6921711508
 H          5.4128641431        1.9295508933        0.3312011396
 H          5.0034672426        1.1935151934        1.8784823493
 H          6.6339678140        0.9984341816        1.2174332713
 H          1.0465590279       -2.4734065911       -2.1606782493
 H         -1.3607425977       -1.9261956612       -1.9027297074
 H         -1.5430276434        2.5413168412       -0.9934819979
 H         -3.1119872493        4.4452149336       -0.9015260251
 H         -5.4424784240        4.1264977737       -0.2143360132
 H         -6.2991696898        1.8805013244        0.3637643523
 H         -6.5892408914       -0.8327314942        0.8470927267
 H         -6.2106127832       -3.2523563584        1.1828324596
 H         -3.9872786113       -4.2334633956        0.8660011534
 H         -2.0710513866       -2.8373115116        0.1809944952
 H         -0.3652781584        1.3301962597        0.7476860532
  49
        -80.71345602
 C          5.5656790720        1.2369913516        0.8319866849
 C          5.1468986092        0.1542329829       -0.1645874985
 C          6.0456517008       -1.0716064234        0.0139321965
 C          5.2436070519        0.6957979165       -1.5961829908
 N          3.7580293347       -0.2150306206        0.1026871249
 C          3.1116865394       -1.2337139463       -0.6118247502
 O          3.7115115323       -2.0674023148       -1.3061420670
 C          1.7030708289       -1.1534948673       -0.4433253416
 C          0.7234913269       -2.0149203632       -1.0087116864
 C         -0.5975701132       -1.7483822849       -0.8312418194
 C         -1.0300522488       -0.5968939634       -0.0959618144
 N         -2.3727844501       -0.2632499291       -0.0386701773
 C         -2.8805744518        1.0010802217       -0.2696084517
 C         -2.2151975802        2.1670442936       -0.6326832009
 C         -2.9727635393        3.3085547136       -0.8270757373
 C         -4.3582387340        3.2916820854       -0.6814832667
 C         -5.0321122548        2.1229130184       -0.3579086208
 C         -4.2953782908        0.9677252175       -0.1584955431
 C         -4.6466690646       -0.3945437262        0.1442504509
 C         -5.8494518124       -1.0442717144        0.3615006266
 C         -5.8265666507       -2.3978965833        0.6635235000
 C         -4.6232799002       -3.0932042908        0.7694547005
 C         -3.4089904654       -2.4660954346        0.5543782828
 C         -3.4258743446       -1.1175440176        0.2150784259
 C         -0.0653437854        0.2508280155        0.4906912873
 C          1.2500957770       -0.0403144568        0.3232139313
 S          2.6723955313        0.8775078839        0.8143193706
 O          2.7113235503        2.1514150236        0.1446266012
 O          2.8690699512        0.9042408313        2.2355261853
 H          4.9829387630        2.1400866925        0.6798076901
 H          5.4057469078        0.8938175192        1.8504076193
 H          6.6192507342        1.4663406759        0.6920221016
 H          5.7242966307       -1.8627393610       -0.6595239254
 H          5.9833682533       -1.4365706850        1.0361667632
 H          7.0751264308       -0.8059598149       -0.2107576148
 H          4.9676578622       -0.0839628643       -2.3021873637
 H          4.5651017976        1.5384703328       -1.7111455054
 H          6.2582178402        1.0222603162       -1.8074232525
 H          1.0563111846       -2.8574039609       -1.5938498100
 H         -1.3484245628       -2.3607153897       -1.3073631028
 H         -1.1461350149        2.1822495825       -0.7780999050
 H         -2.4786632746        4.2265569864       -1.1047452937
 H         -4.9160530208        4.2021243650       -0.8389328048
 H         -6.1074760836        2.1117209687       -0.2690810821
 H         -6.7831742949       -0.5066595583        0.3011742471
 H         -6.7550767925       -2.9209052794        0.8344990356
 H         -4.6383907565       -4.1397235192        1.0317493782
 H         -2.4795209209       -3.0027524841        0.6648463366
 H         -0.3710696591        1.0837444172        1.1046178357
