  87
       -139.13500488
 C        -14.0228587676        1.1412748154        0.8855321872
 C        -12.8554770372        1.8852376933        1.0379103829
 C        -11.6143668210        1.3469172240        0.7537343826
 C        -11.5654097276        0.0371668392        0.2961320684
 C        -12.7435768247       -0.7349811729        0.1694929124
 C        -13.9779382722       -0.1738927816        0.4619875932
 C        -12.3295017225       -2.0437968232       -0.2587101094
 C        -13.0182819371       -3.2081809491       -0.5646455907
 C        -12.2984333097       -4.3122539711       -0.9817452561
 C        -10.9133058276       -4.2557479127       -1.1144265860
 C        -10.2059001093       -3.1057395212       -0.8174835354
 C        -10.9196480849       -2.0036069768       -0.3668238558
 N        -10.4710884267       -0.7408690554       -0.0303365097
 C         -9.1417768351       -0.3186044339       -0.0261183793
 C         -8.1489126980       -1.0951277455        0.5784256495
 C         -6.8411617882       -0.6746916532        0.5799802157
 C         -6.4592350562        0.5436079169       -0.0115160869
 C         -5.0861258759        0.9885539925       -0.0023382044
 C         -4.0164491956        0.0660475370        0.0271185439
 C         -2.7161347566        0.4806330531        0.0229218195
 C         -2.4008548992        1.8609233332        0.0107175049
 C         -1.0703285400        2.3081534067        0.0171310758
 N         -0.6513119059        3.5758010336        0.0152761223
 N          0.6483960960        3.5774064564        0.0234281879
 C          1.0701611865        2.3104515121        0.0300519364
 C          2.4014540314        1.8659156985        0.0370284447
 C          2.7190283046        0.4860474491        0.0324031250
 C          4.0199181098        0.0738099795        0.0250537973
 C          5.0887566581        0.9980619390        0.0423959924
 C          6.4620420581        0.5540951338        0.0404858525
 C          7.4842344503        1.3289534624        0.6198243323
 C          8.7917748292        0.9090569702        0.6187487840
 C          9.1444166085       -0.3087538833        0.0295084126
 N         10.4730221767       -0.7339725733        0.0199979080
 C         11.5634222331        0.0311083991       -0.3465559340
 C         11.6087783498        1.3316552010       -0.8297541624
 C         12.8455458980        1.8557728305       -1.1565481178
 C         14.0116491335        1.1069704830       -1.0197454566
 C         13.9697401282       -0.1988127789       -0.5676402835
 C         12.7399522815       -0.7458553384       -0.2327532458
 C         12.3288939963       -2.0430902590        0.2320591888
 C         13.0172481901       -3.2054623419        0.5466448248
 C         12.3003485228       -4.2954723890        1.0036862635
 C         10.9188820443       -4.2279098767        1.1657896240
 C         10.2116591444       -3.0803137697        0.8597281142
 C         10.9221665979       -1.9922920900        0.3712683386
 C          8.1434798511       -1.0921965857       -0.5523160295
 C          6.8363067101       -0.6710118627       -0.5425509202
 C          4.7610982892        2.3739969648        0.0597581868
 C          3.4657986690        2.8006730307        0.0474645618
 O          0.0009421087        1.4507690562        0.0266228653
 C         -3.4664195183        2.7939179053       -0.0076701892
 C         -4.7609600728        2.3648506824       -0.0239186581
 C         -7.4729814958        1.3119107434       -0.6134038149
 C         -8.7802395256        0.8916104247       -0.6258769858
 H        -14.9736299917        1.5983663390        1.1144083424
 H        -12.9197694553        2.9035968658        1.3907250966
 H        -10.7143879115        1.9245632660        0.8985416723
 H        -14.8810698978       -0.7566028936        0.3642565538
 H        -14.0937534377       -3.2455103087       -0.4820249713
 H        -12.8147518068       -5.2296660527       -1.2203509405
 H        -10.3795596431       -5.1276642484       -1.4617150241
 H         -9.1352765374       -3.0658133666       -0.9472383597
 H         -8.4251589139       -2.0122237842        1.0773882029
 H         -6.1011168315       -1.2725208917        1.0891755738
 H         -4.2319752601       -0.9919095918        0.0116739519
 H         -1.9082686278       -0.2354699375        0.0243417622
 H          1.9125490182       -0.2315943620        0.0383239203
 H          4.2368515050       -0.9837165151        0.0462831211
 H          7.2320324080        2.2524969490        1.1172846727
 H          9.5532960316        1.5004471856        1.1052717151
 H         10.7089333980        1.9126185579       -0.9617900258
 H         12.9070638447        2.8665127914       -1.5311361165
 H         14.9590673861        1.5526235778       -1.2827745699
 H         14.8716665437       -0.7852896468       -0.4809225286
 H         14.0903978199       -3.2518857293        0.4406943033
 H         12.8167845701       -5.2106740571        1.2509889452
 H         10.3881451526       -5.0888030565        1.5438610242
 H          9.1442118738       -3.0304670767        1.0109410364
 H          8.4134628312       -2.0156164054       -1.0431078868
 H          6.0901183933       -1.2741494999       -1.0361879935
 H          5.5559852042        3.1040833271        0.0415877026
 H          3.2164078081        3.8495964496        0.0406179832
 H         -3.2194010547        3.8433990139       -0.0045922303
 H         -5.5574758629        3.0933121429       -0.0125440002
 H         -7.2140482799        2.2297504496       -1.1179984221
 H         -9.5343285153        1.4767666683       -1.1310654193
