105
 energy: -141.139853469660 gnorm: 0.000036921807 xtb: 6.7.1 (edcfbbe)
C            1.71160595681006        3.49262991759385        3.95848663464421
S           -0.07430931968151        3.26371188119256        3.71664922269015
C           -0.06001061456723        1.92348541201498        2.60479325025709
N           -1.24119966567551        1.46058072809859        2.23695439353570
C           -1.25944509459756        0.47930631721408        1.34319666944302
N           -2.51180826221541        0.03261449366334        0.95624030965455
C           -3.57118027720663        0.83950756936757        0.58713104146390
C           -3.62673608838239        2.22195526068368        0.56722351801931
C           -4.78083265036143        2.81915909837134        0.11024599237017
C           -5.87298681101399        2.06714422638146       -0.33455914733880
C           -7.11598769992633        2.79654787856410       -0.82609467133728
C           -7.67114428076284        3.66192901971611        0.31394679532049
C           -6.73648448894748        3.68670280413321       -2.01809911810974
C           -8.22685896374959        1.84536594263397       -1.28149545232345
C           -5.79324599793487        0.68422230147995       -0.31245570130706
C           -4.64637224597129        0.03729123916119        0.15043151352316
C           -4.23452985708002       -1.34848976412110        0.32380515823220
C           -4.82053786038150       -2.61626009096661        0.13757724987531
C           -6.21575825291769       -2.79874247988083       -0.44038865207104
C           -7.23275806146905       -2.15888138302332        0.52010960018722
C           -6.63119549058633       -4.26870920255378       -0.59402122723286
C           -6.24932887566902       -2.19439191182116       -1.85467760882907
C           -4.07239337554994       -3.72135701748318        0.51892899629526
C           -2.81227429578534       -3.62542368965144        1.09489886357699
C           -2.21666104888477       -2.39768156871453        1.27389365015378
C           -2.91811675712123       -1.28288401218484        0.84549253411602
C           -0.08443263669968       -0.03627944046547        0.76673935818939
C           -0.09247960813701       -0.90210060163638       -0.45277142815755
C            1.09905716061470        0.47274730124725        1.31550115257216
N            2.34575971118531        0.02573618587369        0.89808098980367
C            3.38485871885775        0.83100011025227        0.47920110335787
C            3.40953798822438        2.20888704293268        0.37466439778431
C            4.55106160197609        2.81264628322326       -0.11311432471922
C            5.65848731899895        2.06174866600947       -0.50729188683223
C            6.93129269527313        2.70176447011200       -1.04618985039903
C            7.18596530930949        2.19527242870463       -2.47327468240595
C            8.11019474530454        2.31759214477421       -0.14038360623620
C            6.85073170255611        4.23005574356829       -1.09430974744230
C            5.60535707125575        0.67687434694153       -0.41123249086280
C            4.47646861194715        0.02728974530334        0.08137302787713
C            4.08624637699843       -1.35514908986719        0.31809547150875
C            4.68937371232822       -2.62104402607270        0.18127961354574
C            6.08696201531821       -2.80614946793960       -0.38995100817832
C            6.52511645330239       -4.27462356121575       -0.48122598925959
C            7.09460975296417       -2.10996408592612        0.54084971130771
C            6.10927607454912       -2.26167971589550       -1.82854757562695
C            3.95495099453121       -3.72056710876863        0.60289616504172
C            2.69085855181090       -3.61977163172676        1.16961936024955
C            2.07920152077879       -2.39420041345858        1.30306276138790
C            2.76979739107214       -1.28672786819393        0.83948262095143
N            1.11046037736302        1.44944277368482        2.21849361493557
H            2.16441779654190        3.82047049867672        3.02889642814682
H            1.82391723235295        4.25019147128958        4.72661292264917
H            2.14827298744911        2.55142701009909        4.27402744713611
H           -2.79413605674349        2.80904962860317        0.92018413781888
H           -4.82953649332616        3.89689893888748        0.10281779423858
H           -8.57000641899891        4.18123722798867       -0.01226204887298
H           -6.94764941760815        4.40483881266928        0.63715124771969
H           -7.92322703144932        3.03853570876698        1.16933719401844
H           -6.32430490135608        3.08114786202574       -2.82288775802430
H           -7.61550667694639        4.20695169491541       -2.39305790056854
H           -5.99556167762495        4.43017139518387       -1.73834923782000
H           -9.08250673661789        2.42691413178447       -1.61932818726426
H           -7.89712585549732        1.22394986443174       -2.11108456449609
H           -8.55779617428925        1.20838435301122       -0.46445084505288
H           -6.63234149312740        0.11313603721380       -0.65823147501221
H           -7.37798491142682       -2.81469859789795        1.37676907885976
H           -6.89436299759777       -1.20243010464685        0.90105915725342
H           -8.19445276781635       -2.02710942525660        0.02774121662524
H           -7.62910368430023       -4.30329289246000       -1.02757546681902
H           -5.95943030066042       -4.80754670851601       -1.25847527888860
H           -6.66796906432088       -4.77884703413108        0.36571371647871
H           -7.27628771010633       -2.06237042237485       -2.19010110188485
H           -5.75255595536469       -2.87309661584675       -2.54609456759106
H           -5.73344783523190       -1.24309393665742       -1.91020307832534
H           -4.47885986695603       -4.71020372255469        0.39490175092937
H           -2.30281579217973       -4.52387538177684        1.41017820080130
H           -1.25946376518175       -2.30061586102626        1.76116493703337
H            0.78451603994685       -0.68386552891404       -1.06092306775599
H           -0.98871992131175       -0.70277050322359       -1.03825214270438
H           -0.07767007815226       -1.96610655607986       -0.22066888479419
H            2.55475416764887        2.79524161562002        0.67323548049356
H            4.56437491459382        3.88729006818410       -0.18461373996810
H            6.34083818430813        2.43787673080165       -3.11431398095413
H            8.07670037446485        2.66582226021191       -2.88433061534326
H            7.33113934075257        1.11883143186248       -2.49498900865903
H            8.26925259453852        1.24301385529122       -0.12643326734467
H            9.02391394132324        2.79114120155176       -0.49352814751156
H            7.92279423871554        2.64717735392500        0.87951877840471
H            7.78530489148970        4.62958359788888       -1.48328703564765
H            6.69654820210703        4.64578949324821       -0.10124485636433
H            6.04764717065222        4.56005351406687       -1.74925400055952
H            6.46335484115465        0.11428437584132       -0.72979123676734
H            5.86284007084354       -4.85088585835779       -1.12331657484390
H            7.52422095517326       -4.31249060572455       -0.91176238078372
H            6.56762519876765       -4.74320940607520        0.49924373192426
H            8.05452409371522       -1.98607662330964        0.04267193034269
H            6.74235433243145       -1.14293152522841        0.88058814147454
H            7.25018029769942       -2.72559981973447        1.42503794744985
H            5.58495211301870       -1.31792743673676       -1.92232466224917
H            5.61526538779347       -2.97302638250244       -2.48825901965475
H            7.13369837233361       -2.13626876656881       -2.17459414922512
H            4.37430832589594       -4.70800191258167        0.51648947870863
H            2.19037265125555       -4.51294956558809        1.51282769918069
H            1.11656963517215       -2.29225614154419        1.77856329085395
