105
 energy: -141.043744943095 gnorm: 0.000054543776 xtb: 6.7.1 (edcfbbe)
C            1.73612492750460        3.67244098414790        3.33396181295270
S           -0.04983940102810        3.41964978142925        3.12457353802107
C           -0.02667509520894        1.97005030727587        2.14223618973788
N           -1.18932430978828        1.45710631285390        1.82692687048857
C           -1.21976459398889        0.36872607640472        0.97417550077358
N           -2.47604008014406       -0.08355165598826        0.59423445574931
C           -3.48874176745577        0.70442041661322        0.11376618158571
C           -3.49710090535980        2.08365446932408       -0.04016972221732
C           -4.63907787536577        2.67645803278456       -0.52733600391544
C           -5.76863423747756        1.92197410021890       -0.87389468536533
C           -6.99712906063796        2.64491479111580       -1.40513465274870
C           -8.15064493565387        1.69681850154111       -1.74691315276518
C           -7.49393084440416        3.63137838514384       -0.33813255971431
C           -6.61751819540905        3.40833053527006       -2.68247935115688
C           -5.73826816908812        0.54187533068193       -0.71923397424223
C           -4.60434492899233       -0.10223119519369       -0.22884320365842
C           -4.23196074487354       -1.47253429553469        0.07753563019699
C           -4.83651195377044       -2.74072762676867       -0.01174205822786
C           -6.22366887977561       -2.94891809743451       -0.59956778599965
C           -7.24726398501442       -2.23593604285660        0.30074382642140
C           -6.65042029843014       -4.42207448431688       -0.66452524548904
C           -6.23250145688449       -2.43668807260669       -2.04981154395793
C           -4.11463137262206       -3.82291912873303        0.47903156235026
C           -2.85770962114437       -3.70310158734781        1.06246950209235
C           -2.23738092756559       -2.47693465142460        1.13750141965843
C           -2.91637461662641       -1.38732303456506        0.61417568474457
C           -0.03543276871559       -0.15462911910484        0.44836552565056
C           -0.02252842649204       -1.13418279676645       -0.68458877495458
C            1.14929457098873        0.38023551896694        0.96101263737858
N            2.40400110425719       -0.08291479391534        0.57702815004348
C            3.39770203631994        0.67902256100783        0.02228363694387
C            3.37596235576303        2.03801211204960       -0.25540280427078
C            4.49823638771609        2.60756848915225       -0.81093829930270
C            5.63983960799685        1.84765551085637       -1.10162935689810
C            6.84675714231925        2.54453589206629       -1.71234830028678
C            8.01980650841122        1.59447314748845       -1.97207279219214
C            7.32950087625960        3.64137639324139       -0.75200890993573
C            6.43876337730382        3.17081144302506       -3.05386968873946
C            5.63803464150479        0.48689748195984       -0.82794465277123
C            4.52283019532717       -0.13375733826961       -0.26723198736458
C            4.17490463590636       -1.48114505387107        0.14913430204969
C            4.79855000784637       -2.74379623532411        0.15426134263813
C            6.18968829654837       -2.97345528977845       -0.41598877318047
C            6.64684561730306       -4.43756303260881       -0.35481531664207
C            7.19918297082268       -2.16601758336603        0.41795741718913
C            6.18750376682654       -2.58639542353584       -1.90451872053263
C            4.09192845851409       -3.79727595989131        0.72193788750059
C            2.83208164938743       -3.65417619990812        1.29378466151817
C            2.19606068079162       -2.43400997548558        1.28435204044226
C            2.86205423838095       -1.37512425248575        0.68657555543630
N            1.13562750740755        1.46527987646366        1.81781832243115
H            2.17204696311053        2.77140552969791        3.75221558588302
H            2.18601583597309        3.89199067273559        2.37123215516030
H            1.85379393708987        4.51111610585429        4.01174858488387
H           -2.63259517534884        2.66721236709762        0.23397031857233
H           -4.65220191541656        3.74878465221934       -0.64236872551326
H           -8.48649491906568        1.15282316127174       -0.86705173108739
H           -7.86185919341754        0.98801956476905       -2.51977339032940
H           -8.99228813635610        2.27561040409299       -2.12234346031737
H           -6.73809395034914        4.37444373741902       -0.10097188405688
H           -8.38244605742744        4.14993140663219       -0.69237100213239
H           -7.74591903010488        3.09897375170142        0.57666828658226
H           -7.48838165512959        3.92234692041106       -3.08385952482936
H           -5.84594321945599        4.14799049692386       -2.48931481905706
H           -6.24627535645751        2.71739077741953       -3.43676205465136
H           -6.61133815602282       -0.02456586928729       -0.97953570273637
H           -6.89985443601136       -1.26192422242668        0.62536902692729
H           -8.19870380656636       -2.12274901019618       -0.21550060559966
H           -7.41595530094489       -2.83285113727629        1.19525318539160
H           -7.63759748423534       -4.47758008066523       -1.11985774325889
H           -5.96739474812031       -5.00936796070356       -1.27419368149817
H           -6.71649445584746       -4.86667387385491        0.32571673354802
H           -5.72692575158999       -1.48434789160372       -2.15585213998562
H           -7.25368083047788       -2.33882901819181       -2.41333545437812
H           -5.71420884840433       -3.15254830560756       -2.68561945055810
H           -4.53957804099335       -4.81080842135609        0.43375678145153
H           -2.37177991077140       -4.58164522417664        1.45944943365828
H           -1.27536648635266       -2.35311276650620        1.60822226685838
H           -0.94333403994618       -1.05647788824536       -1.25924518891608
H            0.07558335819893       -2.16447335631311       -0.34523298650485
H            0.81930004807510       -0.92135212088313       -1.34241338176847
H            2.49682677421219        2.62347153653442       -0.03505713229500
H            4.48627338643193        3.66452754849234       -1.02710791363440
H            8.37128361668797        1.14177629695630       -1.04769259147273
H            7.74363729748867        0.81091262553188       -2.67403256799015
H            8.84660196380649        2.15413617335118       -2.40510939267241
H            8.20399438277415        4.14115030365868       -1.16344331988449
H            6.55980286374181        4.38890414731225       -0.58251684839293
H            7.59970004857961        3.20699368340159        0.20835847201721
H            7.29355823796200        3.66341608397851       -3.51258112935447
H            5.65087225257333        3.90756790403288       -2.92583258119994
H            6.07816125460980        2.40111115889809       -3.73330602849502
H            6.51708015416221       -0.08481188867165       -1.05427258492068
H            5.97982971621088       -5.08849772217693       -0.91555402947537
H            7.63764692639369       -4.51068557851428       -0.79972033653354
H            6.71576166604155       -4.79531188818178        0.66986338469938
H            6.83562640760408       -1.17254999134887        0.65356409001961
H            7.37535959395219       -2.67790870517952        1.36238583364931
H            8.14991533657640       -2.08387294523835       -0.10545885324665
H            5.68614684264903       -3.36536100684105       -2.47647072600971
H            7.20624233090464       -2.49589175105900       -2.27679286220617
H            5.65944835969645       -1.65861497658344       -2.08982831209714
H            4.53049829150966       -4.77990322568805        0.74809053379826
H            2.35686421484789       -4.50980128521247        1.74971893367181
H            1.23212118879653       -2.28882086958592        1.74636430414730
