105
 energy: -141.043713822784 gnorm: 0.000081365605 xtb: 6.7.1 (edcfbbe)
C            1.79264557023904        3.72106738948770        3.28829665776129
S            0.00742936370828        3.40731997751498        3.15222611087805
C            0.00977233209022        1.96341332547051        2.15580536692674
N           -1.16352053945130        1.47702916809496        1.84743207812384
C           -1.22143472580208        0.38406890498497        1.00305778814220
N           -2.48538761514603       -0.05463737599082        0.63173310765845
C           -3.47727647352505        0.73017725196031        0.10616124815775
C           -3.45663068233977        2.10134776729357       -0.10662773669536
C           -4.57786701162564        2.69243654984762       -0.64175764197077
C           -5.71496280171817        1.94389918955519       -0.97613608572117
C           -6.91751897322039        2.66401254652611       -1.56728686164482
C           -8.08285887315888        1.72300234410214       -1.88785195217024
C           -7.41609353682144        3.71095915815690       -0.56053470164876
C           -6.49580384955918        3.35645588763614       -2.87166649080723
C           -5.71487018314462        0.57197029774178       -0.75799197739426
C           -4.60231120313091       -0.07025697004190       -0.21882680291228
C           -4.25839614244346       -1.43332700669044        0.14933477907399
C           -4.88506050957369       -2.69306758829377        0.10827515191466
C           -6.27440149277509       -2.89956549694613       -0.47482924825985
C           -7.28508410614240       -2.12056814098381        0.38437837358028
C           -6.73417309237885       -4.36412906543302       -0.46807419890813
C           -6.26632158822599       -2.45913514369468       -1.94847582151996
C           -4.18362759306484       -3.76756680558984        0.64393944637573
C           -2.92720547847466       -3.64708938052016        1.22806183132422
C           -2.28780483397818       -2.42879920343118        1.26214975788795
C           -2.94700413820224       -1.34901587987556        0.69502409871725
C           -0.05121320947787       -0.15625830433878        0.45778996953389
C           -0.08830335328615       -1.12980655720999       -0.67957789988890
C            1.14727198973693        0.35756242478329        0.95448911661503
N            2.39451255459573       -0.11135677577180        0.55513299509866
C            3.40672594913253        0.66130105368858        0.04827437057930
C            3.41614328375676        2.03464409812748       -0.14835123594056
C            4.55317428648438        2.61123614504458       -0.66514017006394
C            5.67921390756887        1.84528082825408       -0.99764797595978
C            6.90351276758692        2.55079126251851       -1.56203333126120
C            8.05630356060709        1.59234265894202       -1.87591310310286
C            7.40653137414256        3.57652632756093       -0.53575635896763
C            6.51451805354399        3.26608157255123       -2.86408965182764
C            5.64678347405845        0.47131059564299       -0.80443466080917
C            4.51624895798663       -0.15683156098625       -0.28389673665137
C            4.14082674006932       -1.51779848022893        0.05592880806892
C            4.73940844716238       -2.79095333099173       -0.01039082229943
C            6.12227551130618       -3.01710127455027       -0.60188379497820
C            6.54524602694882       -4.49242413907925       -0.63309347256983
C            7.15401899181090       -2.28517637158538        0.27353027424411
C            6.12246854695070       -2.54070106435836       -2.06432370744833
C            4.01526641730543       -3.85926426453779        0.50468576636844
C            2.76082008201033       -3.72218885620999        1.09006377776642
C            2.14685265489998       -2.49216961542821        1.14483740612675
C            2.82938618076334       -1.41605098715414        0.59859658878950
N            1.16065499789101        1.43484693706926        1.82230815945998
H            2.30235846868147        2.77744202013398        3.11788362660225
H            2.08744485689515        4.45264756483961        2.54191887069994
H            1.98544478564892        4.10164473082193        4.28539944687233
H           -2.58552342702763        2.67981008001468        0.15739332866635
H           -4.56839363207105        3.75852139458251       -0.80523111012366
H           -8.44728962881569        1.22833883432687       -0.99042895835387
H           -7.79300969000158        0.97258902458135       -2.61996192845424
H           -8.90485033199517        2.29924830787833       -2.30805491913904
H           -6.65036815455116        4.44996719709031       -0.34323795323236
H           -8.28614256721793        4.22877061408031       -0.95892435158698
H           -7.69807831125828        3.22897424578242        0.37325794031709
H           -7.34735018462773        3.86711778435807       -3.31641177996085
H           -5.71329154546548        4.08944057995758       -2.69794199734700
H           -6.12327105962235        2.62229225437697       -3.58329126496683
H           -6.59399536740722        0.01077881430428       -1.00921078111919
H           -6.91976440557242       -1.13764445505765        0.65831033973668
H           -8.23337589517405       -2.01644788720266       -0.13951002173425
H           -7.46659904124179       -2.66649663599311        1.30846618863262
H           -7.72309541180070       -4.41941954048412       -0.91962447481122
H           -6.06578989665560       -4.99584675489083       -1.04885232715719
H           -6.80842463450413       -4.75816675967417        0.54280117046391
H           -5.73541975983310       -1.52664241015170       -2.09862040282768
H           -7.28361563745447       -2.35257919714044       -2.32033611945469
H           -5.76523382179587       -3.21836541280812       -2.54662632751915
H           -4.62531113725541       -4.74909647123941        0.63477545466039
H           -2.45749186964102       -4.51833232684702        1.65928396785087
H           -1.32698496714610       -2.30141531163168        1.73541614969872
H           -0.16655320619607       -2.16296555879448       -0.34402391701556
H            0.81700672214699       -1.03904104606815       -1.27699449458890
H           -0.94848286280786       -0.92199411100835       -1.31450749787405
H            2.55135656384969        2.62669748176671        0.10711331273588
H            4.56532260193900        3.67934106507301       -0.81651339415597
H            8.39482617667195        1.07758723581547       -0.97959912518747
H            7.76517944961294        0.85837497663841       -2.62392010369690
H            8.89655819342947        2.15847491294096       -2.27316880211849
H            8.29332603098607        4.08087709043689       -0.91395199519422
H            6.65266974224026        4.32915010236998       -0.32312165515732
H            7.66349128012074        3.07893291893557        0.39717899384328
H            7.38159458803842        3.76671262645488       -3.28989509031252
H            5.74234780016794        4.01081018502884       -2.69350575243928
H            6.13983514658401        2.54710455791540       -3.58988072188134
H            6.51421246331017       -0.10527089967451       -1.06106254960997
H            5.85810375829126       -5.09261664425701       -1.22528231428408
H            7.53024032415830       -4.56145780878271       -1.09135290870911
H            6.61446495960668       -4.91299911600366        0.36740173107970
H            6.81306467046556       -1.30106249767505        0.57358202043452
H            7.32478809071485       -2.85887192662577        1.18276505594673
H            8.10316894755054       -2.19030831846037       -0.25060903769251
H            5.60025904914984       -3.27181255977273       -2.67920479261600
H            7.14139168886680       -2.45179197885431       -2.43648427474929
H            5.61592480201914       -1.59129513882369       -2.19051675985466
H            4.43499569801054       -4.85003452545067        0.47701705803761
H            2.27192894039108       -4.59093213206168        1.50477202251062
H            1.18704967786549       -2.35446793547957        1.61662520767532
