  58
       -102.16316951
 F          5.2394981506       -2.8591808306       -1.3467643542
 B          5.0261940155       -1.5065935290       -1.3537842123
 F          5.1888998026       -0.9985911774       -2.6315459053
 O          5.9621816855       -0.8526328341       -0.4341829419
 C          5.6465646508        0.2379526546        0.2304359596
 C          6.7586851259        0.9270455283        0.8702105635
 C          6.5861467613        1.9192020031        1.8447986775
 C          7.6801938585        2.5361623523        2.4157142591
 C          8.9673380432        2.1828610382        2.0366515303
 C          9.1533323132        1.1963851434        1.0786194442
 C          8.0661498251        0.5735644900        0.5047061969
 C          4.3302025785        0.6728690695        0.3392139258
 C          3.2557350287       -0.0706884663       -0.1926897451
 C          1.9242105110        0.2766374799       -0.0142084171
 C          0.9062094994       -0.5468145602       -0.5243682848
 C         -0.4914487526       -0.3185246269       -0.3659557358
 C         -1.4006490429       -1.2972785822       -0.8336332816
 C         -2.7515669639       -1.1470112687       -0.6825035827
 C         -3.2666570064        0.0030238038       -0.0692229612
 N         -4.6622075922        0.1503843173        0.1027273844
 C         -5.3548704902        1.1578928555       -0.5492565356
 C         -4.7259356953        2.0489394423       -1.4189233175
 C         -5.4488800719        3.0441526124       -2.0482262549
 C         -6.8128731074        3.1676460790       -1.8333760527
 C         -7.4608707854        2.2753941079       -0.9971826564
 C         -6.7448424084        1.2728890461       -0.3627711640
 O         -7.4450825592        0.4064713291        0.4246382996
 C         -6.7534647893       -0.5894998022        1.0499179032
 C         -7.4761918266       -1.4615791945        1.8482795637
 C         -6.8274357287       -2.4743276525        2.5329884114
 C         -5.4507381021       -2.6018029842        2.4322773086
 C         -4.7217825400       -1.7386892883        1.6369906487
 C         -5.3601850949       -0.7304639611        0.9143362773
 C         -2.3890896621        0.9961293794        0.3761034603
 C         -1.0333977283        0.8384667934        0.2369859944
 N          1.2782514925       -1.7003787572       -1.1811513531
 C          2.5233391167       -1.9527550306       -1.3676009450
 N          3.5509513434       -1.2147047312       -0.9194893584
 H          5.5973631043        2.1955972613        2.1748003183
 H          7.5321981533        3.2966177910        3.1688486966
 H          9.8181712223        2.6708672669        2.4881883979
 H         10.1527567309        0.9159275814        0.7806633155
 H          8.1974615752       -0.1927494027       -0.2429927421
 H          4.0976419417        1.5882871585        0.8544598624
 H          1.6932454276        1.1524527451        0.5700580418
 H         -0.9881345634       -2.1674060093       -1.3186217366
 H         -3.4358536545       -1.8988366530       -1.0487114245
 H         -3.6687704103        1.9469188689       -1.6037070030
 H         -4.9422734716        3.7238133500       -2.7150796872
 H         -7.3744271049        3.9470638099       -2.3227739745
 H         -8.5234789989        2.3322442738       -0.8245530141
 H         -8.5428098947       -1.3234984509        1.9212456682
 H         -7.3945716059       -3.1513427726        3.1514076807
 H         -4.9368592345       -3.3761237892        2.9796396019
 H         -3.6499885419       -1.8353185850        1.5739120595
 H         -2.7913889434        1.8787150441        0.8532334110
 H         -0.3799622692        1.6149243111        0.6015405763
 H          2.7922446682       -2.8443227776       -1.9170897439
  58
       -102.16304566
 F          5.2584195035       -2.7686597736       -1.5387986660
 B          5.0335398340       -1.4217075593       -1.4481936359
 F          5.1942223969       -0.8193295606       -2.6845700292
 O          5.9605899088       -0.8278074544       -0.4791393035
 C          5.6375019250        0.2281270778        0.2364165571
 C          6.7393903624        0.8778074914        0.9320889076
 C          6.5503446108        1.8055481545        1.9653588928
 C          7.6342683270        2.3861461241        2.5907451841
 C          8.9275879076        2.0594411725        2.2086519358
 C          9.1298295032        1.1361550600        1.1926936041
 C          8.0527932997        0.5496079130        0.5641743758
 C          4.3203661885        0.6608588308        0.3474634128
 C          3.2516997338       -0.0586676248       -0.2271589992
 C          1.9180153102        0.2774825869       -0.0446583459
 C          0.9063275931       -0.5352575527       -0.5832364463
 C         -0.4924050306       -0.3176302347       -0.4156845709
 C         -1.3985809854       -1.3140217228       -0.8493866831
 C         -2.7489327720       -1.1718282435       -0.6815045520
 C         -3.2644509750       -0.0105995553       -0.0913855419
 N         -4.6589829262        0.1335580270        0.0973866025
 C         -5.3684104269        1.1056563312       -0.5884699754
 C         -4.7614494420        1.9480118286       -1.5199410211
 C         -5.5007289655        2.9078066572       -2.1842216438
 C         -6.8590282962        3.0433457132       -1.9421845718
 C         -7.4852437211        2.1995532272       -1.0413953150
 C         -6.7528582610        1.2326199258       -0.3715223490
 O         -7.4307434866        0.4130980214        0.4830546995
 C         -6.7221404936       -0.5481054569        1.1428563786
 C         -7.4211569546       -1.3704361453        2.0118824972
 C         -6.7534037142       -2.3459193089        2.7315490846
 C         -5.3814853326       -2.4874006923        2.5921948687
 C         -4.6758172074       -1.6733079862        1.7272676276
 C         -5.3339131964       -0.7016661704        0.9732107754
 C         -2.3904564560        1.0019224846        0.3145584675
 C         -1.0353846131        0.8503659127        0.1639168799
 N          1.2859272603       -1.6687680900       -1.2692685562
 C          2.5329757862       -1.9037261901       -1.4673520950
 N          3.5551584967       -1.1721847884       -0.9975464913
 H          5.5558793745        2.0590583757        2.2971189478
 H          7.4733208082        3.0967544707        3.3887699322
 H          9.7706051625        2.5182657790        2.7032652138
 H         10.1343340776        0.8765123751        0.8924474127
 H          8.1965250231       -0.1666832993       -0.2292234215
 H          4.0828199291        1.5527436789        0.9004324059
 H          1.6798626483        1.1276408769        0.5736461720
 H         -0.9854140786       -2.1922710641       -1.3189984664
 H         -3.4318701656       -1.9392031847       -1.0167133695
 H         -3.7087197663        1.8360970345       -1.7232205009
 H         -5.0116846987        3.5498930955       -2.8996209361
 H         -7.4333932677        3.7946479514       -2.4599532593
 H         -8.5428822732        2.2677798254       -0.8447165832
 H         -8.4845603673       -1.2239245772        2.1109522287
 H         -7.3021947676       -2.9838794825        3.4055857774
 H         -4.8530303501       -3.2336312280        3.1640999772
 H         -3.6070275256       -1.7787575797        1.6338825278
 H         -2.7950078127        1.8960727555        0.7676018907
 H         -0.3832744602        1.6429839153        0.4945202708
 H          2.8078841076       -2.7741799400       -2.0471442660
  58
       -102.16300112
 F          5.1651090085       -2.8273405130       -0.0510109267
 B          5.0277113431       -1.7836268589       -0.9498873832
 F          5.2588089297       -2.2226311416       -2.2270365242
 O          5.9762666519       -0.7160683959       -0.6123789720
 C          5.6503387858        0.3151095276        0.1348800266
 C          6.7626635641        1.1315367982        0.6011708524
 C          6.5958978242        2.4207318379        1.1248606441
 C          7.6877808910        3.1496313442        1.5487402583
 C          8.9668176549        2.6184092435        1.4630478097
 C          9.1476203934        1.3462982835        0.9386244632
 C          8.0627193820        0.6125837504        0.5097776748
 C          4.3268954360        0.6044395625        0.4501855054
 C          3.2566669534       -0.1600162380       -0.0593511808
 C          1.9235934461        0.1556407470        0.1614571462
 C          0.9088489277       -0.6158548059       -0.4300055378
 C         -0.4899166723       -0.3880372842       -0.2772925914
 C         -1.4005028037       -1.2347067305       -0.9536101095
 C         -2.7533997477       -1.0686730018       -0.8360500116
 C         -3.2682720170       -0.0383117145       -0.0382037481
 N         -4.6656199003        0.1387575565        0.0859635145
 C         -5.2717798368        1.2953627522       -0.3779182584
 C         -4.5546124128        2.3015174617       -1.0258909876
 C         -5.1919052203        3.4444990228       -1.4689545727
 C         -6.5564456419        3.6068587311       -1.2855754069
 C         -7.2914430456        2.6069443451       -0.6730726917
 C         -6.6616818299        1.4555909765       -0.2277084686
 O         -7.4447733222        0.4932767826        0.3389815891
 C         -6.8397590089       -0.6520943465        0.7669970356
 C         -7.6489099426       -1.6250093212        1.3318298879
 C         -7.0915680632       -2.7966372181        1.8133518954
 C         -5.7196902475       -2.9849337380        1.7464539322
 C         -4.9047493934       -2.0213912451        1.1840429939
 C         -5.4499891395       -0.8472273002        0.6637361027
 C         -2.3878395835        0.8146329830        0.6346407927
 C         -1.0316729041        0.6430076444        0.5227129776
 N          1.2845808607       -1.6800836156       -1.2216110870
 C          2.5308591884       -1.9476509243       -1.3765647717
 N          3.5564214287       -1.2612731009       -0.8469409671
 H          5.6142617871        2.8653498857        1.1802120534
 H          7.5449746410        4.1444627634        1.9455245144
 H          9.8160347922        3.1947366512        1.7986157888
 H         10.1412999331        0.9291581155        0.8668415838
 H          8.1890460299       -0.3788741611        0.1039415770
 H          4.0876017038        1.4341577496        1.0921507540
 H          1.6914376948        1.0052030471        0.7826378887
 H         -0.9886729058       -2.0134129329       -1.5750582480
 H         -3.4371233965       -1.7123620396       -1.3707030036
 H         -3.4963311534        2.1739963990       -1.1866288939
 H         -4.6174940096        4.2106299622       -1.9654308054
 H         -7.0509627330        4.5014457486       -1.6287243349
 H         -8.3569691302        2.6933082890       -0.5342385402
 H         -8.7092740107       -1.4390532848        1.3873115220
 H         -7.7257772027       -3.5517927698        2.2491414111
 H         -5.2770809824       -3.8869134984        2.1386197828
 H         -3.8374562782       -2.1681996011        1.1496441231
 H         -2.7902741901        1.5978935639        1.2615754033
 H         -0.3786388699        1.3053129550        1.0679976941
 H          2.8033128951       -2.7946389480       -1.9911943792
  58
       -102.16294273
 F          5.2422418535       -2.7836725596       -1.5189348705
 B          5.0355691353       -1.4331419428       -1.4383931438
 F          5.2285640155       -0.8386401696       -2.6740018362
 O          5.9508380178       -0.8487867235       -0.4534722914
 C          5.6320780315        0.2211234132        0.2438274503
 C          6.7308532443        0.8575978673        0.9557714008
 C          6.5406934833        1.8254283277        1.9516389034
 C          7.6229000541        2.3898367228        2.5944931851
 C          8.9160407327        2.0061624185        2.2691496375
 C          9.1194288249        1.0435179089        1.2905140998
 C          8.0440875552        0.4740928957        0.6438099862
 C          4.3191361033        0.6739647149        0.3252601994
 C          3.2507378542       -0.0378420721       -0.2591197429
 C          1.9180520188        0.3127735873       -0.0955729070
 C          0.9053891196       -0.4957216581       -0.6378619068
 C         -0.4935906899       -0.2749742351       -0.4730214238
 C         -1.3991661633       -1.2726758592       -0.9044389923
 C         -2.7486521135       -1.1367167966       -0.7243698118
 C         -3.2635753101        0.0200470563       -0.1255304627
 N         -4.6564987285        0.1493081650        0.0882130273
 C         -5.3935290250        1.1023006388       -0.5945970164
 C         -4.8159075360        1.9466437851       -1.5425815254
 C         -5.5829017141        2.8856493046       -2.2052408706
 C         -6.9398119311        2.9981421546       -1.9444172164
 C         -7.5365826221        2.1529824433       -1.0251207894
 C         -6.7763946673        1.2069609405       -0.3564521802
 O         -7.4254671383        0.3852801207        0.5183947117
 C         -6.6890835224       -0.5559287460        1.1768834135
 C         -7.3583620918       -1.3805202475        2.0670070957
 C         -6.6612109312       -2.3365594360        2.7850960193
 C         -5.2897478490       -2.4565912084        2.6224852078
 C         -4.6136250220       -1.6403189934        1.7361517148
 C         -5.3015946662       -0.6877182952        0.9845144330
 C         -2.3913652177        1.0375319561        0.2707362442
 C         -1.0365853145        0.8917543259        0.1085485981
 N          1.2822388638       -1.6333284555       -1.3185386048
 C          2.5293025310       -1.8811037174       -1.5007222863
 N          3.5523218568       -1.1601811089       -1.0173838457
 H          5.5457497221        2.1266381099        2.2391762284
 H          7.4604987553        3.1329732089        3.3618794163
 H          9.7575860510        2.4520033482        2.7780289683
 H         10.1235519639        0.7398185760        1.0336158004
 H          8.1893051094       -0.2723692069       -0.1210974809
 H          4.0830222572        1.5733271510        0.8664594997
 H          1.6806972901        1.1699852600        0.5132987060
 H         -0.9862852598       -2.1481394240       -1.3794087138
 H         -3.4312809048       -1.9067994472       -1.0538703762
 H         -3.7641618070        1.8519529674       -1.7597173450
 H         -5.1169068249        3.5292734179       -2.9344745557
 H         -7.5358804618        3.7328590506       -2.4614526320
 H         -8.5922177321        2.2040518877       -0.8127926323
 H         -8.4221773976       -1.2511150843        2.1834592310
 H         -7.1869741478       -2.9767355391        3.4752077953
 H         -4.7385720928       -3.1881000706        3.1920251962
 H         -3.5452479821       -1.7295826600        1.6235739906
 H         -2.7958988971        1.9295912095        0.7279027589
 H         -0.3850155494        1.6869334694        0.4341303788
 H          2.8027969064       -2.7551680439       -2.0756603943
  58
       -102.16291063
 F          5.2271741265       -2.3588152603        2.1236968941
 B          5.0279291471       -1.8369380005        0.8728319803
 F          5.2119368533       -2.8136716368       -0.0909253782
 O          5.9638277543       -0.7320417559        0.6413402755
 C          5.6461566842        0.3298459148       -0.0664348951
 C          6.7572261679        1.1959563162       -0.4347690497
 C          6.5826758914        2.4985147758       -0.9218163687
 C          7.6748993746        3.2740152244       -1.2516689157
 C          8.9625054800        2.7781367441       -1.1052067905
 C          9.1507830189        1.4932347703       -0.6157518964
 C          8.0654612489        0.7125562685       -0.2817632289
 C          4.3296802598        0.6064924985       -0.4212667235
 C          3.2571719572       -0.1988261529        0.0149888759
 C          1.9258040500        0.1080132519       -0.2290548490
 C          0.9072260925       -0.6971365845        0.3076724003
 C         -0.4907720643       -0.4620998666        0.1553494530
 C         -1.4052105191       -1.3086978330        0.8261717851
 C         -2.7569156273       -1.1209076024        0.7289648108
 C         -3.2666458805       -0.0711367003       -0.0466006992
 N         -4.6622146857        0.1370779732       -0.1361712365
 C         -5.2312175063        1.3037776934        0.3499506735
 C         -4.4749625615        2.2963264958        0.9741355390
 C         -5.0758635339        3.4511136360        1.4367877444
 C         -6.4423789825        3.6390732549        1.2978529235
 C         -7.2156169697        2.6521106740        0.7121209261
 C         -6.6224430796        1.4889438306        0.2477815457
 O         -7.4425903527        0.5397751691       -0.2874945616
 C         -6.8732232682       -0.6149803830       -0.7388523690
 C         -7.7191860462       -1.5741636287       -1.2721575096
 C         -7.1994617927       -2.7529143960       -1.7780071962
 C         -5.8288483315       -2.9613029234       -1.7683489851
 C         -4.9775898398       -2.0123460640       -1.2357777913
 C         -5.4838196142       -0.8325414683       -0.6893491217
 C         -2.3823135949        0.7723759360       -0.7263376138
 C         -1.0273397744        0.5811082151       -0.6320671055
 N          1.2764172179       -1.7919058603        1.0595581203
 C          2.5220203355       -2.0562932560        1.2265115902
 N          3.5508365501       -1.3329188604        0.7570995824
 H          5.5933546019        2.9163870733       -1.0230309782
 H          7.5252256477        4.2780008313       -1.6219234745
 H          9.8119735671        3.3911388173       -1.3670247219
 H         10.1507907203        1.1029858064       -0.4967637706
 H          8.1982016137       -0.2887458398        0.0966774476
 H          4.0965243668        1.4620844013       -1.0305263450
 H          1.6974339705        0.9850863287       -0.8122917200
 H         -0.9975234059       -2.1020824456        1.4315090249
 H         -3.4427259031       -1.7612429068        1.2649667476
 H         -3.4147207401        2.1494724398        1.1014321378
 H         -4.4711508410        4.2062772158        1.9137392335
 H         -6.9083811475        4.5431575062        1.6553887682
 H         -8.2833966362        2.7576159669        0.6090105909
 H         -8.7777618711       -1.3717704738       -1.2851756327
 H         -7.8621222479       -3.4976063318       -2.1887033792
 H         -5.4160523183       -3.8680689992       -2.1814644316
 H         -3.9119764952       -2.1748319461       -1.2452563246
 H         -2.7811551816        1.5655474188       -1.3430151481
 H         -0.3715229829        1.2362963391       -1.1827063911
 H          2.7899885980       -2.9303155410        1.8040502654
  58
       -102.16283116
 F          5.2619822214       -2.7567592970       -1.5517227026
 B          5.0431157202       -1.4077566516       -1.4749575794
 F          5.2303306589       -0.8144742748       -2.7110910067
 O          5.9541507147       -0.8150089377       -0.4900296786
 C          5.6297285940        0.2523785001        0.2085088165
 C          6.7164405864        0.8780819200        0.9480922648
 C          6.5651471753        2.0617721048        1.6842029502
 C          7.6324186249        2.6001268069        2.3725083489
 C          8.8725600702        1.9783800165        2.3519971067
 C          9.0396559185        0.8090383884        1.6235491785
 C          7.9797861202        0.2662254209        0.9304600036
 C          4.3114134253        0.6904628464        0.2934173074
 C          3.2497483689       -0.0323026922       -0.2884885300
 C          1.9144134376        0.3025881976       -0.1135299029
 C          0.9069803784       -0.5117891718       -0.6556270497
 C         -0.4926517618       -0.2995260128       -0.4838428235
 C         -1.3970174149       -1.2981010442       -0.9150166244
 C         -2.7467538346       -1.1648927994       -0.7317994946
 C         -3.2621175778       -0.0108581096       -0.1286832959
 N         -4.6542042808        0.1230678312        0.0866967604
 C         -5.3819052629        1.0916305225       -0.5843230489
 C         -4.8017299687        1.9219537222       -1.5431039355
 C         -5.5584769025        2.8778757743       -2.1931725957
 C         -6.9074511394        3.0221565482       -1.9078262416
 C         -7.5073285542        2.1911337772       -0.9776487424
 C         -6.7576459387        1.2274248315       -0.3225478373
 O         -7.4093243057        0.4207494644        0.5641751178
 C         -6.6846611628       -0.5430054061        1.2028578998
 C         -7.3586268528       -1.3572268152        2.0989245398
 C         -6.6732398037       -2.3356509820        2.7978007767
 C         -5.3083614033       -2.4886394968        2.6100257010
 C         -4.6273235110       -1.6818411055        1.7187608728
 C         -5.3040847588       -0.7065952649        0.9863820635
 C         -2.3905966689        1.0066962002        0.2691825568
 C         -1.0362961361        0.8639879738        0.1033458041
 N          1.2904884179       -1.6430965240       -1.3429711672
 C          2.5392439904       -1.8772439324       -1.5333101125
 N          3.5579004762       -1.1473978731       -1.0541201471
 H          5.6163760826        2.5734806229        1.7136162463
 H          7.4996956503        3.5146536347        2.9324172173
 H          9.7009727158        2.4033264769        2.8985919668
 H         10.0033867144        0.3219254671        1.5997631046
 H          8.0985906007       -0.6416194178        0.3606237416
 H          4.0588599931        1.5671784032        0.8629332200
 H          1.6725252793        1.1535659811        0.5022057639
 H         -0.9837383999       -2.1714041633       -1.3935915606
 H         -3.4285970477       -1.9348114418       -1.0632167480
 H         -3.7563487541        1.8029990606       -1.7785058435
 H         -5.0906406372        3.5102996356       -2.9310698696
 H         -7.4953379778        3.7707189473       -2.4143017374
 H         -8.5574931592        2.2671216753       -0.7464622824
 H         -8.4165986542       -1.2020347098        2.2353403205
 H         -7.2026882276       -2.9672621769        3.4929108306
 H         -4.7659204894       -3.2382887884        3.1641354337
 H         -3.5634639337       -1.7960526422        1.5878609254
 H         -2.7959363333        1.8969829791        0.7290536910
 H         -0.3859336956        1.6600824715        0.4287404727
 H          2.8182730692       -2.7468303716       -2.1123981625
  58
       -102.16280719
 F          5.2075400982       -2.1830304331       -2.2217706461
 B          5.0309332379       -0.8783278058       -1.8325313960
 F          5.2381601642       -0.0287755392       -2.9029767647
 O          5.9725133996       -0.5554784486       -0.7563191497
 C          5.6497443321        0.1461112423        0.3069675798
 C          6.7590268803        0.5168324168        1.1756884677
 C          6.6334344637        1.4283326861        2.2329160422
 C          7.7213756340        1.7388741266        3.0223805171
 C          8.9563160117        1.1527127312        2.7850208128
 C          9.0976068650        0.2535915746        1.7373515525
 C          8.0171618222       -0.0589492594        0.9413911669
 C          4.3278324066        0.4635280888        0.6024041133
 C          3.2578505978        0.0231891003       -0.2035987927
 C          1.9251988894        0.2475866994        0.1138306970
 C          0.9079949912       -0.2641845351       -0.7090074513
 C         -0.4903373103       -0.1253819280       -0.4694870815
 C         -1.4020201775       -0.7454369336       -1.3572180618
 C         -2.7540647920       -0.6634568171       -1.1662306236
 C         -3.2675927560        0.0438633721       -0.0707422445
 N         -4.6631492240        0.1094182204        0.1449474503
 C         -5.4926657038        0.7111993981       -0.7882213490
 C         -4.9947345137        1.3342535300       -1.9331262456
 C         -5.8535497510        1.9144949413       -2.8466845876
 C         -7.2237813927        1.8969119045       -2.6361465856
 C         -7.7356873333        1.3140845666       -1.4899781120
 C         -6.8821746955        0.7319280908       -0.5665078887
 O         -7.4445935545        0.2036386866        0.5584904876
 C         -6.6170843291       -0.3810804465        1.4714865179
 C         -7.2036701221       -0.9252817278        2.6030058439
 C         -6.4225819115       -1.5626174937        3.5511026102
 C         -5.0546964510       -1.6725577443        3.3546688389
 C         -4.4604881102       -1.1310720735        2.2310297478
 C         -5.2250312656       -0.4549470188        1.2796276463
 C         -2.3861729237        0.6737470713        0.8137904900
 C         -1.0307471438        0.5959720851        0.6187519740
 N          1.2798885757       -0.9702736972       -1.8333564631
 C          2.5258770831       -1.1348774657       -2.0959890491
 N          3.5534833804       -0.6917146462       -1.3536519451
 H          5.6901711422        1.9129782352        2.4298287804
 H          7.6099355566        2.4473403480        3.8305352581
 H          9.8022033983        1.3992594392        3.4093052010
 H         10.0574336424       -0.2024707260        1.5442221654
 H          8.1145364047       -0.7569172943        0.1248934158
 H          4.0843159746        1.0168968493        1.4921442942
 H          1.6954264258        0.8088835460        1.0047149747
 H         -0.9910548345       -1.3001412711       -2.1852546825
 H         -3.4375986167       -1.1607963421       -1.8394367197
 H         -3.9297252962        1.3645542843       -2.0964836549
 H         -5.4472653012        2.3853472121       -3.7277651230
 H         -7.8925867281        2.3439835590       -3.3540971537
 H         -8.7943576095        1.3017189872       -1.2865589902
 H         -8.2726689881       -0.8426327830        2.7145014778
 H         -6.8834816477       -1.9821821989        4.4307981237
 H         -4.4432691610       -2.1880139539        4.0784787349
 H         -3.3988603764       -1.2361053696        2.0767109763
 H         -2.7878559009        1.2393765041        1.6427533579
 H         -0.3775202008        1.1069045302        1.3077193025
 H          2.7961091248       -1.6869550030       -2.9852135748
  58
       -102.16200450
 F          5.2349366685       -2.7505058452       -1.6080548287
 B          5.0660976248       -1.3940036027       -1.5358724533
 F          5.3633079429       -0.8008821816       -2.7493426944
 O          5.9282161643       -0.8460690488       -0.4813280012
 C          5.5978276631        0.2392376585        0.1839455039
 C          6.6332924077        0.8045463300        1.0389674094
 C          6.5572665307        2.0993960188        1.5681309831
 C          7.5549079682        2.5762710207        2.3932861937
 C          8.6433857482        1.7790128676        2.7166896413
 C          8.7376943315        0.4993366538        2.1882045523
 C          7.7499737567        0.0181149866        1.3559574993
 C          4.3014613109        0.7405101667        0.1704911934
 C          3.2493662827        0.0462653931       -0.4634275256
 C          1.9157483740        0.4040501276       -0.3347762217
 C          0.9126417244       -0.4101593644       -0.8873298337
 C         -0.4856662673       -0.2116268133       -0.6944007062
 C         -1.3836391448       -1.2450185681       -1.0506349018
 C         -2.7257888533       -1.1381803992       -0.8045583800
 C         -3.2406490779        0.0248670023       -0.2188658175
 N         -4.6214941612        0.1292735504        0.0742417419
 C         -5.4178659604        1.0394571012       -0.5994595477
 C         -4.9234437041        1.8274192304       -1.6386032194
 C         -5.7477024262        2.7234442284       -2.2918077589
 C         -7.0801174619        2.8479011975       -1.9294432667
 C         -7.5951143943        2.0589013160       -0.9154764677
 C         -6.7771028911        1.1562886803       -0.2552437281
 O         -7.3452443685        0.3904781323        0.7207831121
 C         -6.5518834411       -0.5117959037        1.3678016575
 C         -7.1391780766       -1.2793447112        2.3608661516
 C         -6.3807635468       -2.1950646249        3.0693021477
 C         -5.0297515963       -2.3332430464        2.7913510213
 C         -4.4344812257       -1.5718154304        1.8038438304
 C         -5.1857581593       -0.6583371616        1.0645941781
 C         -2.3798413122        1.0825041925        0.0874183544
 C         -1.0317334393        0.9654576667       -0.1368149143
 N          1.3025094238       -1.5395500691       -1.5733544463
 C          2.5526982554       -1.7870371141       -1.7334547152
 N          3.5660716637       -1.0772379475       -1.2133374165
 H          5.7310309956        2.7447379633        1.3137352213
 H          7.4865173316        3.5788794600        2.7901425879
 H          9.4147875884        2.1554590631        3.3718047934
 H          9.5871869351       -0.1223574527        2.4299123432
 H          7.8105280263       -0.9752067821        0.9398328848
 H          4.0497627508        1.6216433587        0.7342010058
 H          1.6672178928        1.2603794730        0.2706626621
 H         -0.9710442768       -2.1263843785       -1.5148527500
 H         -3.4024223266       -1.9377419917       -1.0698195238
 H         -3.8914818370        1.7222977954       -1.9326370334
 H         -5.3459457017        3.3243860172       -3.0922741307
 H         -7.7208171417        3.5494876367       -2.4390553611
 H         -8.6300463984        2.1223460982       -0.6206111406
 H         -8.1885546901       -1.1383859819        2.5632660815
 H         -6.8429411429       -2.7903383433        3.8403515946
 H         -4.4308365196       -3.0350541099        3.3499688033
 H         -3.3803022647       -1.6726913055        1.6023598506
 H         -2.7869659036        1.9819332459        0.5275132734
 H         -0.3868598872        1.7898777887        0.1227523613
 H          2.8368906281       -2.6548007423       -2.3125237400
