  58
  -101.803814439800       0.211877371468393      !
 F          5.1987846276       -2.2187771766        2.2068137180
 B          5.0177966802       -1.8608639212        0.8937685600
 F          5.2088797180       -2.9544956891        0.0703657613
 O          5.9680441201       -0.8027973370        0.5380121632
 C          5.6514940158        0.2456460542       -0.1883136049
 C          6.7670481511        1.0933810591       -0.5876909636
 C          6.6462655858        2.1284543292       -1.5249055804
 C          7.7400681066        2.8987007865       -1.8619850575
 C          8.9762691130        2.6636741195       -1.2775433712
 C          9.1127661057        1.6376828944       -0.3530416591
 C          8.0264067917        0.8609171675       -0.0138445997
 C          4.3306181813        0.5464064759       -0.5050430432
 C          3.2554331865       -0.2372741708       -0.0379006116
 C          1.9246301109        0.0879316419       -0.2621341787
 C          0.9025047093       -0.7113096618        0.2765208009
 C         -0.4942109937       -0.4611518040        0.1402281455
 C         -1.4107847612       -1.3235989261        0.7881306413
 C         -2.7613412015       -1.1209908677        0.7095885694
 C         -3.2683504639       -0.0385607161       -0.0221177812
 N         -4.6620636971        0.1895985607       -0.0846006263
 C         -5.5047000254       -0.7499906238       -0.6574691683
 C         -5.0222395014       -1.9152883789       -1.2543377707
 C         -5.8938390440       -2.8344316619       -1.8059920230
 C         -7.2617523208       -2.6095784731       -1.7853892090
 C         -7.7584296872       -1.4438921707       -1.2286804828
 C         -6.8920208561       -0.5147382994       -0.6753306305
 O         -7.4397664782        0.6289214182       -0.1722966374
 C         -6.5994479112        1.5479344772        0.3840390863
 C         -7.1711922513        2.6987609501        0.9029617693
 C         -6.3766051322        3.6546642790        1.5112900404
 C         -5.0100857910        3.4471574061        1.6178241014
 C         -4.4306231977        2.3041992875        1.1013699087
 C         -5.2089461552        1.3438429359        0.4542483308
 C         -2.3821321389        0.8207489823       -0.6795799295
 C         -1.0282621064        0.6139506361       -0.6051595352
 N          1.2675924926       -1.8211790115        1.0085920956
 C          2.5119075244       -2.0922374646        1.1721923801
 N          3.5440639636       -1.3718389744        0.7040989459
 H          5.7019611034        2.3226458280       -2.0086207184
 H          7.6322313867        3.6897817906       -2.5900094046
 H          9.8267862620        3.2728835424       -1.5449872076
 H         10.0734890784        1.4463822202        0.1019030041
 H          8.1200286497        0.0613740726        0.7039823653
 H          4.0925181067        1.4243075946       -1.0792841142
 H          1.7002341007        0.9666361190       -0.8444134964
 H         -1.0046206687       -2.1414902640        1.3611215223
 H         -3.4484121263       -1.7744172319        1.2279890625
 H         -3.9591351460       -2.0901928088       -1.2869871529
 H         -5.4994070674       -3.7312228215       -2.2568366268
 H         -7.9405482883       -3.3317547517       -2.2100350808
 H         -8.8149080603       -1.2294587876       -1.2150140325
 H         -8.2395238201        2.8190084199        0.8240383568
 H         -6.8259884879        4.5493305042        1.9112328490
 H         -4.3881703519        4.1775035174        2.1110329262
 H         -3.3699491197        2.1417854356        1.2038001912
 H         -2.7790746921        1.6391955728       -1.2635723042
 H         -0.3714243815        1.2830973112       -1.1373627978
 H          2.7767182860       -2.9699277222        1.7449665876
  58
  -101.803581236900       0.165543427970895      !
 F          5.1806248931       -0.0337388648        2.7990703754
 B          5.0283695958       -0.9562991113        1.7783372515
 F          5.2494453481       -2.2246418358        2.2470301446
 O          5.9740042601       -0.6542977451        0.6976335780
 C          5.6494741075        0.0708922773       -0.3496163952
 C          6.7615851540        0.5061028463       -1.1833116727
 C          6.5925182800        0.9999454611       -2.4839351863
 C          7.6842785600        1.3950900147       -3.2289837229
 C          8.9654628771        1.3095952340       -2.7029299730
 C          9.1484598218        0.8144643456       -1.4194451493
 C          8.0636601979        0.4144017878       -0.6695008084
 C          4.3275407034        0.3922412622       -0.6391999223
 C          3.2567978080       -0.0878824975        0.1433600676
 C          1.9241543238        0.1384581067       -0.1701872178
 C          0.9081277143       -0.4239450104        0.6210981891
 C         -0.4903644795       -0.2628874105        0.3973856410
 C         -1.4026382439       -0.9093268906        1.2653108778
 C         -2.7552527401       -0.7823655597        1.1039647849
 C         -3.2682133584       -0.0047037691        0.0573464018
 N         -4.6652748277        0.1290370648       -0.1149463228
 C         -5.2826417602       -0.3567524057       -1.2565322405
 C         -4.5777055450       -1.0360952460       -2.2505660976
 C         -5.2259200254       -1.5004325322       -3.3788671142
 C         -6.5895094283       -1.3074695737       -3.5380788991
 C         -7.3126589920       -0.6635585467       -2.5493206694
 C         -6.6719045937       -0.1966429558       -1.4126647445
 O         -7.4438126252        0.4010365959       -0.4601125628
 C         -6.8280085444        0.8507105325        0.6711227133
 C         -7.6259312559        1.4470507033        1.6344620511
 C         -7.0571190346        1.9513256640        2.7909069326
 C         -5.6848984650        1.8753609124        2.9731697186
 C         -4.8811082100        1.2816118992        2.0191088557
 C         -5.4382147504        0.7383832547        0.8610062896
 C         -2.3861617433        0.6384118078       -0.8166003965
 C         -1.0301900557        0.5171841240       -0.6498197440
 N          1.2822142229       -1.1931592502        1.7021927861
 C          2.5284369434       -1.3539719350        1.9665425364
 N          3.5551654045       -0.8514257451        1.2617945008
 H          5.6089182095        1.0542517059       -2.9243214139
 H          7.5396255017        1.7689853035       -4.2323773292
 H          9.8145879149        1.6225833861       -3.2919579711
 H         10.1437822750        0.7429446123       -1.0061947762
 H          8.1917262939        0.0315399587        0.3308321589
 H          4.0897699068        1.0162063917       -1.4829686738
 H          1.6932020973        0.7410925802       -1.0333272238
 H         -0.9924359854       -1.5157402518        2.0566274679
 H         -3.4404611258       -1.2943816623        1.7642650242
 H         -3.5203344887       -1.2042206413       -2.1250359394
 H         -4.6608543073       -2.0210764803       -4.1358506797
 H         -7.0925393221       -1.6673128362       -4.4212878350
 H         -8.3772515294       -0.5162570571       -2.6331328990
 H         -8.6867569292        1.5085568959        1.4530903462
 H         -7.6826384226        2.4116327804        3.5387280982
 H         -5.2332487555        2.2849008985        3.8628629488
 H         -3.8133732561        1.2401608792        2.1607931901
 H         -2.7869417667        1.2501054882       -1.6126556524
 H         -0.3756725229        1.0396816089       -1.3288192829
 H          2.7997339721       -1.9505215035        2.8267261352
  58
  -101.803541566300       0.158737888313020      !
 F          5.2654857503       -1.5497036399        2.7511998305
 B          5.0378986664       -1.4976573449        1.4024600969
 F          5.2085505299       -2.7472194914        0.8327833066
 O          5.9545441433       -0.5340471637        0.7838858719
 C          5.6296150879        0.1463072961       -0.2950305297
 C          6.7192372780        0.8621946395       -0.9428423816
 C          6.5669804452        1.5760346289       -2.1399728747
 C          7.6372659189        2.2425970786       -2.6992956433
 C          8.8814900930        2.2219171285       -2.0857655862
 C          9.0495237534        1.5152913301       -0.9032420474
 C          7.9866229230        0.8439601808       -0.3394168757
 C          4.3091614924        0.2358264885       -0.7256937935
 C          3.2468459893       -0.3207399373        0.0158294394
 C          1.9110020519       -0.1389612391       -0.3133502800
 C          0.9039583094       -0.6544509716        0.5185958851
 C         -0.4953457488       -0.4727464986        0.3125200885
 C         -1.3969220432       -0.8747105407        1.3256959216
 C         -2.7456626978       -0.6805046385        1.1980868705
 C         -3.2630843921       -0.0953405673        0.0357604094
 N         -4.6538553924        0.1314355182       -0.0929203844
 C         -5.3950406232       -0.5513618038       -1.0428478878
 C         -4.8303528272       -1.5323577095       -1.8577561662
 C         -5.6002831308       -2.1936622152       -2.7952666104
 C         -6.9473177693       -1.8975813720       -2.9359961108
 C         -7.5319874875       -0.9449678496       -2.1196807696
 C         -6.7690157539       -0.2784053024       -1.1744375965
 O         -7.4060889045        0.6308042166       -0.3812394546
 C         -6.6682987264        1.2812074912        0.5645496607
 C         -7.3275108683        2.2001350407        1.3652575903
 C         -6.6282881856        2.9114078695        2.3247761439
 C         -5.2643129192        2.7128862743        2.4721486696
 C         -4.5979287548        1.7988357164        1.6787175308
 C         -5.2888391153        1.0540446281        0.7229884556
 C         -2.3948173907        0.2732783396       -0.9954986369
 C         -1.0412721193        0.0965917330       -0.8587710210
 N          1.2885312505       -1.3229377278        1.6607892957
 C          2.5369385773       -1.5212249346        1.8901486922
 N          3.5551710636       -1.0670536183        1.1438978305
 H          5.6149692090        1.6048543480       -2.6456618758
 H          7.5037115799        2.7854622906       -3.6239216477
 H          9.7123157665        2.7514908606       -2.5272328096
 H         10.0163765777        1.4914548421       -0.4223582151
 H          8.1061133951        0.2911779224        0.5788227026
 H          4.0561482164        0.7902665444       -1.6118891924
 H          1.6692970757        0.4620923993       -1.1748122401
 H         -0.9823093069       -1.3399310491        2.2055584161
 H         -3.4253461648       -0.9895575394        1.9791367845
 H         -3.7865671787       -1.7759321012       -1.7412693023
 H         -5.1443213833       -2.9487410236       -3.4159742519
 H         -7.5455027678       -2.4129038069       -3.6702246335
 H         -8.5802956038       -0.7047019012       -2.1930933363
 H         -8.3851319477        2.3441527063        1.2146098166
 H         -7.1462913338        3.6243190115        2.9459498429
 H         -4.7110861543        3.2763137420        3.2068210025
 H         -3.5346538984        1.6594549850        1.7882431574
 H         -2.8017981886        0.7193802726       -1.8920207770
 H         -0.3933117649        0.3994205759       -1.6656548507
 H          2.8162795064       -2.0856455862        2.7692270420
  58
  -101.803478667200       0.148516317983361      !
 F          5.2442161856        2.3272040688        2.1165455583
 B          5.0395196683        1.0324231559        1.7186018537
 F          5.2266870332        0.1667293618        2.7826687269
 O          5.9690070114        0.6931321223        0.6363702716
 C          5.6441596494       -0.1127795022       -0.3507703825
 C          6.7497987645       -0.5657417303       -1.1830444007
 C          6.5672548231       -1.1755077544       -2.4317255193
 C          7.6546143244       -1.5813913816       -3.1774222285
 C          8.9451603276       -1.3912494201       -2.7045447052
 C          9.1413421191       -0.7808236461       -1.4737398115
 C          8.0609206962       -0.3703426574       -0.7233228577
 C          4.3254706361       -0.4891323507       -0.5852207061
 C          3.2582121418        0.0254790656        0.1798057861
 C          1.9247068231       -0.2434695312       -0.0952914363
 C          0.9115911010        0.3709877086        0.6596140470
 C         -0.4879642421        0.2004239640        0.4474908842
 C         -1.3964348626        0.9520696377        1.2302030398
 C         -2.7493280227        0.8407935519        1.0595607351
 C         -3.2663112042       -0.0309197387        0.0919915813
 N         -4.6631601583       -0.1364462557       -0.0994912507
 C         -5.2373494346        0.2365541301       -1.3046652405
 C         -4.4850782042        0.7602527143       -2.3565726518
 C         -5.0911515102        1.1111239338       -3.5474659787
 C         -6.4589446407        0.9583368465       -3.7141820010
 C         -7.2281464860        0.4724190490       -2.6714516864
 C         -6.6297589686        0.1206958951       -1.4720157225
 O         -7.4459636342       -0.3185168250       -0.4715231744
 C         -6.8713997819       -0.6580660809        0.7184120401
 C         -7.7133618265       -1.0942844668        1.7288145980
 C         -7.1884279898       -1.4856303345        2.9481354973
 C         -5.8167034235       -1.4595618681        3.1476159939
 C         -4.9693926897       -1.0231031130        2.1474357639
 C         -5.4807513793       -0.5915040971        0.9230884522
 C         -2.3879487808       -0.7910620079       -0.6866370951
 C         -1.0317746471       -0.6823824429       -0.5122673859
 N          1.2882273657        1.2238355521        1.6749709647
 C          2.5355781722        1.4121902417        1.9156777553
 N          3.5595123419        0.8725836035        1.2356303712
 H          5.5755018751       -1.3138866918       -2.8328434917
 H          7.4987904773       -2.0462190859       -4.1402991135
 H          9.7907815529       -1.7131252152       -3.2938128257
 H         10.1436716380       -0.6274423481       -1.1018829254
 H          8.1998145804        0.1024192958        0.2361811218
 H          4.0864491078       -1.1773419601       -1.3769483762
 H          1.6904117641       -0.9078588323       -0.9109310655
 H         -0.9832256671        1.6299239659        1.9594991183
 H         -3.4305635311        1.4377787580        1.6487890088
 H         -3.4237980297        0.8983045553       -2.2280839828
 H         -4.4894658690        1.5115352996       -4.3481390228
 H         -6.9290062735        1.2283692520       -4.6461062430
 H         -8.2966919326        0.3624429843       -2.7610754450
 H         -8.7730290553       -1.1239425838        1.5340301068
 H         -7.8479751064       -1.8209502894        3.7323003025
 H         -5.3999512406       -1.7845167662        4.0878348882
 H         -3.9029492032       -1.0196988810        2.3046299304
 H         -2.7923356368       -1.4802066760       -1.4146739697
 H         -0.3806426777       -1.2952882436       -1.1147160581
 H          2.8094423129        2.0705096333        2.7286272475
  58
  -101.803465686900       0.146490290691204      !
 F          5.2438085822       -1.3273299280        2.8603665733
 B          5.0218501010       -1.3663654440        1.5097182097
 F          5.1685087423       -2.6581498799        1.0332743823
 O          5.9628308184       -0.4731643320        0.8269656423
 C          5.6469636595        0.1668537246       -0.2781650876
 C          6.7610369243        0.7776510129       -0.9900217563
 C          6.5919707136        1.7285546520       -2.0054846238
 C          7.6877403286        2.2725257879       -2.6433780936
 C          8.9732408802        1.8894312214       -2.2884451305
 C          9.1558918635        0.9547968918       -1.2791625508
 C          8.0669935873        0.4079074543       -0.6353766925
 C          4.3290195448        0.2779983316       -0.7076580750
 C          3.2540239225       -0.2239746707        0.0556815327
 C          1.9221738694       -0.0407841866       -0.2879245228
 C          0.9043666564       -0.5195767743        0.5543869087
 C         -0.4930568415       -0.3527654733        0.3306885042
 C         -1.4006579017       -0.7862734973        1.3265087031
 C         -2.7509213260       -0.6252459594        1.1807057618
 C         -3.2671399177       -0.0360192107        0.0186637037
 N         -4.6618057130        0.1463490772       -0.1244886865
 C         -5.3673593797       -0.5238084873       -1.1109070758
 C         -4.7528497155       -1.4220780654       -1.9834510261
 C         -5.4883772456       -2.0689440122       -2.9579681948
 C         -6.8509060253       -1.8434097603       -3.0785412938
 C         -7.4848050463       -0.9783766089       -2.2038278296
 C         -6.7560954715       -0.3261492805       -1.2221084985
 O         -7.4428864520        0.4899968623       -0.3716655462
 C         -6.7387188264        1.1331790326        0.6039024257
 C         -7.4478493497        1.9606453326        1.4598648087
 C         -6.7858380996        2.6640950930        2.4509599904
 C         -5.4094363753        2.5526288727        2.5725437745
 C         -4.6939899484        1.7283996533        1.7254281159
 C         -5.3459999297        0.9870273940        0.7397529004
 C         -2.3914848244        0.3751052420       -0.9907438412
 C         -1.0362803185        0.2262238093       -0.8378816621
 N          1.2771337168       -1.1507443833        1.7219320976
 C          2.5218694659       -1.3434203141        1.9713500727
 N          3.5492082898       -0.9245920859        1.2159250380
 H          5.6048068981        2.0615130218       -2.2841149656
 H          7.5424686077        3.0076649111       -3.4217567165
 H          9.8254370812        2.3198034923       -2.7929191775
 H         10.1540426852        0.6538664952       -0.9973482522
 H          8.1956742492       -0.3214802610        0.1488224590
 H          4.0958194955        0.7722811330       -1.6344025662
 H          1.6915127773        0.5234783140       -1.1768383738
 H         -0.9875013691       -1.2532868021        2.2061131536
 H         -3.4340503591       -0.9653477063        1.9457308547
 H         -3.6969622531       -1.6149762438       -1.8832332272
 H         -4.9928106318       -2.7578870047       -3.6235910236
 H         -7.4222804666       -2.3466108790       -3.8418663224
 H         -8.5459696961       -0.7964307674       -2.2585493697
 H         -8.5145388472        2.0409521809        1.3264902483
 H         -7.3424319671        3.3051712212        3.1155347667
 H         -4.8851851744        3.1141293327        3.3295956825
 H         -3.6222893158        1.6568761789        1.8170831781
 H         -2.7945848411        0.8338440604       -1.8826654914
 H         -0.3841735111        0.5643643421       -1.6273003792
 H          2.7909170509       -1.8729061230        2.8748982775
  58
  -101.803342131400       0.128536557544248      !
 F          5.2605375970       -1.5270189498        2.7711570271
 B          5.0277593970       -1.4660290507        1.4238801637
 F          5.1718948315       -2.7179221231        0.8500392128
 O          5.9607075770       -0.5209439717        0.8012828927
 C          5.6379980311        0.1726964621       -0.2692895097
 C          6.7426234406        0.8413633577       -0.9422605901
 C          6.5580208996        1.8542638889       -1.8930719868
 C          7.6444208073        2.4544902749       -2.4951983558
 C          8.9359002704        2.0669035892       -2.1676861107
 C          9.1338446519        1.0710670887       -1.2218225230
 C          8.0543388981        0.4677785921       -0.6137178635
 C          4.3192499542        0.2870616436       -0.6962073443
 C          3.2495343283       -0.2592843541        0.0435032469
 C          1.9155996566       -0.0710303682       -0.2884550686
 C          0.9038369933       -0.5797245617        0.5432248412
 C         -0.4945156399       -0.4029347060        0.3305196623
 C         -1.3985019909       -0.8035273912        1.3426375203
 C         -2.7479790629       -0.6251202266        1.2050298934
 C         -3.2650721741       -0.0573812002        0.0333905964
 N         -4.6585264493        0.1423188668       -0.1063976720
 C         -5.3812600427       -0.5590080745       -1.0574278564
 C         -4.7893501840       -1.5163926479       -1.8812362248
 C         -5.5416333007       -2.1955510033       -2.8202905965
 C         -6.8982589626       -1.9427739283       -2.9529571547
 C         -7.5097246861       -1.0158279514       -2.1268617438
 C         -6.7642313767       -0.3308387996       -1.1807603488
 O         -7.4279926737        0.5498692221       -0.3775039864
 C         -6.7064201809        1.2249003969        0.5632588078
 C         -7.3911456804        2.1203374918        1.3691133653
 C         -6.7097169826        2.8559738413        2.3229875083
 C         -5.3383892256        2.7058454056        2.4590693246
 C         -4.6469167850        1.8146322550        1.6613108690
 C         -5.3190137443        1.0446083625        0.7120328447
 C         -2.3936532380        0.3154129804       -0.9939902366
 C         -1.0392195602        0.1544136437       -0.8474617151
 N          1.2838635223       -1.2425971903        1.6902914551
 C          2.5303461469       -1.4479310223        1.9220057342
 N          3.5524358339       -1.0061712557        1.1730674179
 H          5.5653418229        2.1901808497       -2.1481039824
 H          7.4869448003        3.2370775233       -3.2235322974
 H          9.7808793720        2.5417739618       -2.6434474517
 H         10.1369232975        0.7666950286       -0.9614719537
 H          8.1946847471       -0.3098707853        0.1202960753
 H          4.0814974366        0.8211720145       -1.5994577897
 H          1.6781794957        0.5293884300       -1.1515397801
 H         -0.9843827932       -1.2564456171        2.2291669311
 H         -3.4292433461       -0.9349838041        1.9844503672
 H         -3.7380323134       -1.7278280873       -1.7711770225
 H         -5.0641185067       -2.9309737044       -3.4482782626
 H         -7.4827806026       -2.4722339189       -3.6881041864
 H         -8.5657316207       -0.8099054159       -2.1930581376
 H         -8.4544240857        2.2268886888        1.2270107803
 H         -7.2474222230        3.5505672125        2.9482101804
 H         -4.7992565093        3.2897778558        3.1881502131
 H         -3.5784640515        1.7127354326        1.7621948196
 H         -2.7994304656        0.7513027018       -1.8960766199
 H         -0.3889927452        0.4593938045       -1.6518134679
 H          2.8050443878       -2.0097492543        2.8042327051
  58
  -101.802246012000       4.029814602887950E-002 !
 F          5.2430821950       -1.6264040616        2.7240748126
 B          5.0630595810       -1.5686371176        1.3683203767
 F          5.3433259903       -2.7918851143        0.7871559440
 O          5.9304830318       -0.5291158789        0.8004147470
 C          5.5970298423        0.1264588042       -0.2898452461
 C          6.6357057498        0.9645835235       -0.8742448562
 C          6.5534417779        1.4791017393       -2.1746038000
 C          7.5547846547        2.2887790748       -2.6698960192
 C          8.6532837458        2.6109570439       -1.8859984920
 C          8.7537023666        2.0967592133       -0.6009776743
 C          7.7622491428        1.2799454891       -0.1013405770
 C          4.2962482781        0.1197255606       -0.7796848635
 C          3.2442091613       -0.4956336694       -0.0688547774
 C          1.9088096459       -0.3582162159       -0.4165937289
 C          0.9075923778       -0.8912781967        0.4127942672
 C         -0.4904745744       -0.6870743062        0.2240838275
 C         -1.3827493205       -1.0222719411        1.2693804040
 C         -2.7233455063       -0.7643897616        1.1712349152
 C         -3.2427048792       -0.1875063463        0.0057875960
 N         -4.6215176794        0.1178077742       -0.0901522942
 C         -5.4323084472       -0.5588142264       -0.9853151652
 C         -4.9548720531       -1.6119869336       -1.7650837163
 C         -5.7932252944       -2.2676748533       -2.6460925716
 C         -7.1231192198       -1.8938219214       -2.7633253400
 C         -7.6213625554       -0.8656100376       -1.9820409976
 C         -6.7891303692       -0.2027558059       -1.0944749350
 O         -7.3410834319        0.7877648073       -0.3354652789
 C         -6.5336302938        1.4376429765        0.5521330481
 C         -7.1045551220        2.4454067424        1.3128434286
 C         -6.3313344382        3.1571953420        2.2134564884
 C         -4.9819097376        2.8677267400        2.3432420851
 C         -4.4029025141        1.8655142288        1.5885169708
 C         -5.1692640983        1.1228724683        0.6904508459
 C         -2.3882870202        0.0978229112       -1.0628347725
 C         -1.0414327364       -0.1381559158       -0.9547939649
 N          1.3007058918       -1.5676602970        1.5468661235
 C          2.5514125642       -1.7370141845        1.7854161784
 N          3.5634980600       -1.2352491617        1.0607249772
 H          5.7191611101        1.2251619003       -2.8096934897
 H          7.4814402913        2.6743899587       -3.6765343902
 H          9.4276449572        3.2540109957       -2.2768881553
 H          9.6109082414        2.3375057085        0.0104167280
 H          7.8274903126        0.8750352218        0.8963096200
 H          4.0422879699        0.6753969842       -1.6652637987
 H          1.6586375967        0.2394420130       -1.2778963338
 H         -0.9669436276       -1.4800306678        2.1526136696
 H         -3.3954716333       -1.0135527515        1.9797269347
 H         -3.9249154643       -1.9148137147       -1.6653989079
 H         -5.4045018569       -3.0790804872       -3.2409042208
 H         -7.7748374619       -2.4054245276       -3.4532167839
 H         -8.6539155433       -0.5614295928       -2.0400378842
 H         -8.1531240718        2.6563562369        1.1785681879
 H         -6.7808073683        3.9397101231        2.8034741848
 H         -4.3714973604        3.4287397344        3.0331355654
 H         -3.3498742607        1.6549593094        1.6826612305
 H         -2.7990142339        0.5311943725       -1.9638891134
 H         -0.4013367909        0.1053296348       -1.7877991110
 H          2.8375983719       -2.3085183801        2.6575288961
