78
 energy: -121.942960245610 gnorm: 0.000042093891 xtb: 6.7.1 (edcfbbe)
O           -6.64960360775321        1.52132510497186       -0.79114127514746
P           -5.87261244841816        0.36176257915264       -0.33999861077336
C           -6.38519750113185       -0.26425691071286        1.29290546821121
C           -6.19332080252651       -1.57706486750884        1.70218069888679
C           -6.60405288266232       -1.96729817845119        2.96436811133649
C           -7.20547231871687       -1.05314067882329        3.81491558547125
C           -7.40475868343764        0.25473648141697        3.40328083428373
C           -6.99505839396820        0.64831841938211        2.14226790263651
C           -5.98572327809205       -1.06982225653954       -1.46254114847666
C           -7.16254755278554       -1.18726862911002       -2.18908871389895
C           -7.34215387174570       -2.25478365475401       -3.04977749999159
C           -6.34320084497935       -3.20532351722337       -3.18557308099020
C           -5.16464938976430       -3.08471432978852       -2.46670955198392
C           -4.98226871297399       -2.01854028126789       -1.60389970901926
C           -4.09063823513930        0.71252773803407       -0.18480513695917
C           -3.58986632377085        1.73049413084803       -0.98541954842302
C           -2.24757228467194        2.05064660566658       -0.95268409141471
C           -1.39138645069154        1.35380467468611       -0.10278795831632
N           -0.02869878196381        1.67321443234036       -0.05943459203177
C            0.49981007059991        2.94367413565084        0.08454030613504
C           -0.14896253430427        4.15494733048955        0.27471354704209
C            0.63063816142164        5.28642978397203        0.42217329995981
C            2.02191738159524        5.22198704858355        0.39098059616887
C            2.67317206836590        4.01591606235643        0.22732310978780
C            1.91043404423704        2.86518021358408        0.07791229368796
C            2.24106609639426        1.47634812081151       -0.08296343624674
C            3.44278543965629        0.79230539322085       -0.17820951397623
C            3.40467928717093       -0.58117695324972       -0.35399638832770
P            4.90241368078072       -1.60717276925161       -0.46446660427959
O            4.70295383163537       -2.86020682081060       -1.20212323545089
C            6.17055846989943       -0.52632642395703       -1.20464692556959
C            6.37246664875268       -0.65683847330944       -2.57138651087844
C            7.30204686137863        0.14002549457796       -3.21458453530123
C            8.03131891915365        1.06888456929474       -2.49002039728045
C            7.83618569992029        1.19484461165549       -1.12376796216326
C            6.90741857128119        0.39865730437233       -0.47747008589105
C            5.45328158179507       -1.86623935413426        1.25522504531722
C            5.17928456451155       -0.98404365652044        2.29127435598861
C            5.65535211631616       -1.25136435707017        3.56273043782802
C            6.40196830187769       -2.39412053899109        3.80127928396919
C            6.66937065046067       -3.27880550456788        2.76895028930319
C            6.19444850455909       -3.01453845144784        1.49727046170640
C            2.18835540711387       -1.25917925554318       -0.46044691091145
C            0.98191509226988       -0.59681011779501       -0.37113225313471
C            1.01268903152117        0.77582423777609       -0.15947244308325
C           -1.89637767072815        0.34096205589875        0.71052280270302
C           -3.23883775968351        0.02036418028909        0.66619752394222
H           -5.73847721435191       -2.29225233551374        1.03097670805572
H           -6.45837553592389       -2.98867609262013        3.28521946642484
H           -7.52541380203496       -1.36421673895459        4.79856413921074
H           -7.88070218362005        0.96407910501697        4.06427866716114
H           -7.14970056321580        1.65858139481895        1.79119995171947
H           -7.92046077827497       -0.42559257608107       -2.07351609722302
H           -8.25769656558401       -2.34650228985024       -3.61535493102256
H           -6.47974676438051       -4.03987676215403       -3.85748754887945
H           -4.38420490445853       -3.82304012609589       -2.58102941411365
H           -4.05881421920826       -1.91690854317503       -1.05106702101545
H           -4.27295404775727        2.26418323283831       -1.63025566009507
H           -1.85114483301866        2.82571762302523       -1.59136232198713
H           -1.22579910422522        4.21409610636749        0.31849036390842
H            0.14957637208495        6.24204417422542        0.56823695916151
H            2.59471923501962        6.12989066593344        0.50607000683056
H            3.75137306859915        3.96225320040027        0.21786650924911
H            4.38350191975769        1.32137751433209       -0.13453870247025
H            5.79802049788255       -1.39677453889900       -3.11029342314832
H            7.46016324123981        0.03784487909747       -4.27824807299613
H            8.75852039420697        1.69272185208034       -2.98894748455253
H            8.41273566154336        1.91433329423531       -0.56013679770473
H            6.76385773484527        0.48506377654911        0.59072253283036
H            4.58672378791927       -0.09898460270981        2.10539521343354
H            5.44195050989977       -0.56711725624786        4.37145812241361
H            6.77123849818861       -2.59734980552215        4.79592027206315
H            7.24630650543289       -4.17239034441333        2.95727642889296
H            6.37896358877754       -3.69346771436202        0.67694749151765
H            2.21882599247178       -2.32543857050921       -0.63125897472071
H            0.04776380200485       -1.12734951498226       -0.47679233253222
H           -1.23346619878510       -0.17755634602815        1.38744683234235
H           -3.62919842126597       -0.75538618467918        1.30942071290797
