  78
       -121.83034105
 O         -6.3373062490        0.4219585459       -1.8291525411
 P         -5.5439718795       -0.2529857714       -0.7936811019
 C         -6.2474184165       -0.0834905674        0.8798337849
 C         -5.9872252429       -0.9817413134        1.9080944057
 C         -6.5095168929       -0.7495325833        3.1670332090
 C         -7.2798274999        0.3779112856        3.4062732334
 C         -7.5346322483        1.2769702146        2.3809653325
 C         -7.0144273462        1.0492852741        1.1213922743
 C         -5.4389680284       -2.0612638883       -1.0497770365
 C         -6.6212115933       -2.7752450040       -0.9105600195
 C         -6.6433825562       -4.1335303604       -1.1662613287
 C         -5.4821526623       -4.7780293792       -1.5641451820
 C         -4.3051821052       -4.0635574118       -1.7128794954
 C         -4.2813055095       -2.7021668737       -1.4601002645
 C         -3.8684025546        0.3702888137       -0.6470291315
 C         -3.4953008156        1.4530376280       -1.4715958593
 C         -2.2624790791        2.0217125633       -1.3709372522
 C         -1.3150463278        1.5203428694       -0.4281318234
 N         -0.0672474975        2.0764150598       -0.3270163345
 C          0.2155253664        3.4395663664       -0.3717568706
 C         -0.6525638118        4.5129021721       -0.4415171832
 C         -0.1081618386        5.7976551738       -0.4400490556
 C          1.2661826746        5.9905427009       -0.3516797270
 C          2.1422712288        4.9203272949       -0.2356091875
 C          1.6197820661        3.6301372840       -0.2269819973
 C          2.1975248574        2.3373470946       -0.0699158674
 C          3.4918738217        1.8756188617        0.1130277160
 C          3.7169635769        0.5083795083        0.1624061835
 P          5.4389576819       -0.0116666597        0.3847269783
 O          6.3478807289        1.0968713006        0.7014852914
 C          5.3843709284       -1.2940537623        1.6793062060
 C          5.6655082495       -0.8858960975        2.9753297140
 C          5.6290096174       -1.8005438811        4.0121318114
 C          5.3073665980       -3.1232158549        3.7524578972
 C          5.0290323732       -3.5316898507        2.4575296598
 C          5.0653850081       -2.6198223919        1.4181474131
 C          5.9195166903       -0.9203488514       -1.1244021034
 C          7.1872258307       -1.4872756437       -1.1046447767
 C          7.6643764312       -2.1549374399       -2.2168298961
 C          6.8741639936       -2.2529654621       -3.3517409087
 C          5.6136815389       -1.6795867492       -3.3743913365
 C          5.1327507537       -1.0097597636       -2.2617549133
 C          2.6616249433       -0.4169552121        0.0343809229
 C          1.3586021414        0.0231334854       -0.1285684181
 C          1.1186114215        1.3897035985       -0.1497254910
 C         -1.6974829656        0.4333806614        0.4061462824
 C         -2.9438659358       -0.1070209461        0.3137483115
 H         -5.4026825980       -1.8707536534        1.7150725333
 H         -6.3196091274       -1.4529410041        3.9652296077
 H         -7.6843842383        0.5545114549        4.3920526075
 H         -8.1387609703        2.1529383187        2.5669952348
 H         -7.2062114647        1.7283086106        0.3027000060
 H         -7.5157324638       -2.2489542235       -0.6031679867
 H         -7.5627163441       -4.6908216868       -1.0588827870
 H         -5.4967906612       -5.8394509868       -1.7644796181
 H         -3.4035618207       -4.5673630092       -2.0297852522
 H         -3.3683378433       -2.1357526397       -1.5812336062
 H         -4.2119230572        1.7911859177       -2.2058625961
 H         -1.9489137463        2.7919957008       -2.0590937453
 H         -1.7222962750        4.3763974764       -0.4685911925
 H         -0.7674437945        6.6489099617       -0.4979006866
 H          1.6579558358        6.9967685108       -0.3565959241
 H          3.2053335897        5.0787830748       -0.1471257080
 H          4.3299732071        2.5504518887        0.2046870866
 H          5.9254043774        0.1489733254        3.1474193216
 H          5.8524353059       -1.4851960732        5.0207971949
 H          5.2786154663       -3.8402779137        4.5597960692
 H          4.7868636811       -4.5655638254        2.2576784846
 H          4.8658042588       -2.9381000071        0.4041310636
 H          7.7875759272       -1.3906270329       -0.2095842494
 H          8.6496610099       -2.5973535202       -2.2026275224
 H          7.2444183066       -2.7738363860       -4.2225381961
 H          5.0031781461       -1.7517250806       -4.2628529650
 H          4.1512655484       -0.5568601822       -2.2762857335
 H          2.8768609968       -1.4732183309        0.0554830002
 H          0.5582058077       -0.6888633806       -0.2611792016
 H         -1.0113499574        0.1052424224        1.1728895386
 H         -3.2446449601       -0.9001868978        0.9819995517
