78
 energy: -121.833266440865 gnorm: 0.000149576520 xtb: 6.7.1 (edcfbbe)
O           -6.31057157794646        0.38902005137707       -1.87998211901431
P           -5.52703727736856       -0.27156018611092       -0.82788783131674
C           -6.25191694577921       -0.08255681216115        0.83465871307876
C           -5.96073254766102       -0.93533594318971        1.89294030632163
C           -6.50046236711507       -0.68535405844367        3.14079380466053
C           -7.32097858595307        0.41449532681991        3.33893545168212
C           -7.60862836008414        1.26720399661347        2.28361480150991
C           -7.06949301472182        1.02238976229747        1.03510622145406
C           -5.40718607903108       -2.08182791877067       -1.05990559422320
C           -6.56171337427401       -2.82198459905912       -0.84703593204066
C           -6.56306174155511       -4.18420822492883       -1.08277008317791
C           -5.40958809126061       -4.80620086781961       -1.53499911295592
C           -4.26116069964854       -4.06538426543662       -1.75933794364309
C           -4.25842165056331       -2.70052458627184       -1.52633794997185
C           -3.85638046092292        0.35896402419901       -0.66628410053814
C           -3.49497605173480        1.48079719685518       -1.44801845188062
C           -2.27039264917051        2.05769066735880       -1.32757279307768
C           -1.30945631194522        1.52355309273139       -0.40908011834762
N           -0.06520153287244        2.08057368522515       -0.29598780639541
C            0.21338995423385        3.44570691949834       -0.29183279092770
C           -0.65906964671271        4.51837204746159       -0.31183635889200
C           -0.11892739383715        5.80183240658435       -0.26537850064731
C            1.25586690597997        5.99736703673740       -0.18300060422110
C            2.13534598720996        4.92671095231285       -0.11600898312582
C            1.61672080952514        3.63702385837348       -0.15271809570912
C            2.20165390450763        2.33916801046687       -0.05062351145017
C            3.49915030886151        1.87803284780057        0.09834514237732
C            3.73043153502772        0.51089297961588        0.09612936788879
P            5.45356763857241       -0.01684533685637        0.29022800415691
O            6.38263906779237        1.09677279615308        0.51930771446142
C            5.42258616427561       -1.22457855116369        1.65483077307872
C            5.77836487622743       -0.75363852486627        2.91081152823841
C            5.75718772998352       -1.60416255721596        4.00115937668265
C            5.37561619692150       -2.92604488860553        3.83577942899219
C            5.02231127625532       -3.39761142992904        2.58116331954191
C            5.04300644979109       -2.54982437561591        1.48859674924638
C            5.87269948361333       -1.00337011380623       -1.18767997494417
C            7.05678341214751       -1.72652516352396       -1.12985389270576
C            7.48395154996476       -2.44367506494894       -2.23159598257083
C            6.72900512281924       -2.43380099079361       -3.39439723511183
C            5.55443783740109       -1.70272168338022       -3.45588429044820
C            5.12424029776901       -0.98290225264383       -2.35377131130578
C            2.67629759091700       -0.41175349914216       -0.05491380224758
C            1.37161797801737        0.02717812965262       -0.18815239147581
C            1.12599341173319        1.39346574870032       -0.15466205614454
C           -1.68014159463002        0.39640654538484        0.38189136793415
C           -2.92046871177486       -0.14823904009253        0.27479572669247
H           -5.33642170713828       -1.80334675764133        1.73228825523681
H           -6.28394814773335       -1.35219101729568        3.96318334567168
H           -7.73916253916529        0.60471796216860        4.31647434863875
H           -8.25322747986829        2.12038527584192        2.43735231877938
H           -7.28508626064521        1.66488874502681        0.19320538414524
H           -7.45187800578368       -2.31460942369583       -0.49806829911998
H           -7.46047925868397       -4.76220824008592       -0.91673874043642
H           -5.40814501603692       -5.87080184799913       -1.71819878448001
H           -3.36610653226400       -4.55172779174152       -2.11993794251574
H           -3.36895402157170       -2.11204177933287       -1.70648531772112
H           -4.21696193799905        1.83873081817321       -2.16747356027111
H           -1.96501482744045        2.85699787252301       -1.98554155921148
H           -1.72842972659155        4.37827774805704       -0.33519803037770
H           -0.78094403094670        6.65293327770522       -0.28350779729850
H            1.64349453421877        7.00471125808603       -0.15309722927116
H            3.19874611020395        5.08472394872532       -0.02968680574490
H            4.33650278732101        2.55247302682050        0.20006848990744
H            6.08329237147741        0.27859714449921        3.00895300466556
H            6.03881939304917       -1.23982960793123        4.97824419640578
H            5.35841407675366       -3.59317781228838        4.68514698724990
H            4.73340091481797       -4.43104565514577        2.45450591269144
H            4.78527547756871       -2.91942255228525        0.50575067321898
H            7.63287554779496       -1.71402212026466       -0.21369351156794
H            8.40370762112501       -3.00837460227173       -2.18755613685739
H            7.06057304181932       -2.99357796758743       -4.25660074027074
H            4.97225332419606       -1.69058316767446       -4.36591042127684
H            4.21023031518101       -0.40687658243993       -2.39719654807410
H            2.89671879634206       -1.46686103020095       -0.08111435934933
H            0.57259241159169       -0.68208938396870       -0.34129890006565
H           -0.98719963953644        0.04519083650920        1.13216537945578
H           -3.21258040555759       -0.96997904737588        0.91114380013147
