92
 energy: -146.778445813662 gnorm: 0.000063636480 xtb: 6.7.1 (edcfbbe)
C            1.80481117067539       -4.16244989843281       -3.48302162958337
C            0.34961492504052       -4.02959665192421       -3.02796820391536
C           -0.62573323595553       -4.35340351395603       -4.16031705463910
C            0.11641508155848       -4.91445076909720       -1.82686464658149
C            0.10128861407921       -6.29598795413352       -1.96091498492039
C           -0.10582197009576       -7.11108625099309       -0.86524840080024
C           -0.29033409212103       -6.55741879044748        0.38655595055999
C           -0.26077731359456       -5.18137251265783        0.56658550515290
C           -0.46707910618356       -4.58332734275467        1.93787037707850
C           -1.92252993859847       -4.78068025004659        2.36781168247871
C            0.50672184938270       -5.17554643768897        2.95747320709491
C           -0.06146944065175       -4.37666040267660       -0.55369669358476
N           -0.04036395893563       -2.95167065459902       -0.38952147070978
C           -1.27348904407290       -2.31529849770073       -0.35213795511279
O           -2.30984960245524       -2.96024669664387       -0.46686011455866
C           -1.23457165227710       -0.87864959344775       -0.16091196095617
C           -2.43952311384717       -0.16006542293513       -0.10096858169974
C           -2.41398563183997        1.20657652439091        0.07780286209956
N           -3.62849668084678        1.93660766259114        0.15564224258206
C           -3.93897734007579        2.87187721120919       -0.81643500447580
C           -3.12834457057787        3.07810708150404       -1.93221203544036
C           -3.46370866544545        4.02810649616381       -2.87846823430681
C           -4.61675014576647        4.78342305547820       -2.73957954276243
C           -5.44989223645621        4.57331272640766       -1.65400981001643
C           -5.12228132008498        3.62311686446053       -0.70088322605210
O           -5.99387491381475        3.44722552476047        0.33482139642403
C           -5.69574557341557        2.48941699339957        1.26270202469445
C           -6.60155755705050        2.30396410871998        2.29422202222495
C           -6.34658831943012        1.36830974040331        3.28169617784175
C           -5.17590339223923        0.62801195605189        3.24158829385376
C           -4.26726686622277        0.80530531110127        2.21574963621840
C           -4.51608195451504        1.72624974665447        1.19907407667756
C           -1.20503686781743        1.89928978957824        0.20553203454209
C            0.01532148919995        1.20552611809031        0.14983777936423
C            1.25393373270037        1.85951187073703        0.25818679157136
C            2.44421634633483        1.12764546351465        0.18509664138284
N            3.67707280173282        1.81981334778975        0.30883331297389
C            4.05740981459779        2.73558489346402       -0.65699634658240
C            3.30040488285373        2.95753416950981       -1.80692493575213
C            3.70482046871143        3.88779432383807       -2.74578826360126
C            4.87496812063404        4.60711582003722       -2.56519708122996
C            5.65561585363456        4.38025973888041       -1.44454576660920
C            5.25863836726454        3.44966557994614       -0.49845462879153
O            6.08082536645634        3.25551305486975        0.57372972323925
C            5.71244127678110        2.31853330358576        1.49765765700950
C            6.56698420171478        2.11580329116288        2.56889052892279
C            6.23952930886943        1.20047880069351        3.55406129477853
C            5.04793295410866        0.49802145550423        3.47136972667347
C            4.19021903254173        0.69250604440602        2.40557538865991
C            4.51222090124462        1.59310596019158        1.39128381694455
C            2.43330419287849       -0.24034860202509        0.01532903251638
C            1.20944158817180       -0.91972400845025       -0.09774926070600
C           -0.00339756498010       -0.20713635564280       -0.03582070953656
C            1.20947793812723       -2.35863593395652       -0.27631741150247
O            2.22753666253944       -3.04070755303991       -0.31668590229920
H            2.46928511112172       -3.91675318036224       -2.65757542988115
H            2.00683121889163       -3.48635273612674       -4.31185010699187
H            2.01490101559068       -5.17991481681774       -3.80466584266026
H            0.18131584875536       -2.98732170341918       -2.73761026750204
H           -0.50417538187182       -3.63826503011128       -4.97189774304215
H           -0.45329544170938       -5.35027027215886       -4.55768544239470
H           -1.64971316660360       -4.29695293521472       -3.79752438098542
H            0.25032570297658       -6.74112769141582       -2.93295328552756
H           -0.12341245224798       -8.18472410927324       -0.98773735565965
H           -0.45694736380101       -7.20492038513162        1.23409753373786
H           -0.27444135423034       -3.50655987083043        1.88727910606261
H           -2.15684527630289       -5.83898775435224        2.45587591228077
H           -2.58494876149856       -4.34071096429431        1.62558515552267
H           -2.10261199157546       -4.30324516890132        3.32946110664626
H            0.31604333283447       -6.23352601453860        3.11755838026793
H            1.52976302960837       -5.05701404631964        2.60715165026701
H            0.40382145954445       -4.66300085092095        3.91233197937865
H           -3.36736690295350       -0.69945207210845       -0.20855908587716
H           -2.23814261101708        2.48223158854716       -2.05260333537899
H           -2.82103641451631        4.17299909093521       -3.73273161225202
H           -4.87638204135178        5.52527545455821       -3.47781902167710
H           -6.36326005003482        5.13172061001102       -1.52710063830088
H           -7.49618225015326        2.90550404339628        2.30334492708185
H           -7.05698907466345        1.22514628149346        4.08013673429960
H           -4.96495689370645       -0.09468652344243        4.01396063864213
H           -3.35653099695002        0.22929511235075        2.19408962568251
H           -1.21016969784440        2.96704299410319        0.36631879103848
H            1.28684984059750        2.92715334459536        0.41642648341193
H            2.39699104383475        2.38953765040157       -1.95936808597699
H            3.10268514660151        4.04554308317783       -3.62689087547724
H            5.18843312223660        5.33372732794998       -3.29768178436081
H            6.58052972856112        4.91036610537519       -1.28426739830089
H            7.47972017870521        2.68807125505271        2.61024589374580
H            6.91018327389736        1.04374138472321        4.38371949765067
H            4.78059779813815       -0.20831212817792        4.24141532240177
H            3.26290288248165        0.14592961081814        2.35038008124714
H            3.34704333114049       -0.81019054065345       -0.04608994741410
