92
 energy: -146.828942244777 gnorm: 0.000055712343 xtb: 6.7.1 (edcfbbe)
C            1.86108288101017       -4.84777951388269       -2.33371155094121
C            0.42096767483621       -4.60717809044570       -1.87446455346127
C           -0.58829614659930       -5.20184944077953       -2.85794605205966
C            0.22965080499588       -5.17172846029181       -0.48683786099057
C            0.25374613862855       -6.54379975792294       -0.27615736726590
C            0.08303267700218       -7.06814889629175        0.99019807652749
C           -0.10633594689114       -6.22924565778212        2.07090753294655
C           -0.11952225571708       -4.85050723383692        1.90737171492791
C           -0.33058628859139       -3.94112446433270        3.09419640893631
C           -1.76220270219236       -4.09631197902465        3.61275672049948
C            0.69733489763603       -4.21813542995443        4.19238186601869
C            0.04620546779322       -4.34582421577265        0.61989350829674
N            0.02879728890146       -2.91924873973444        0.42372892528807
C           -1.21855053764909       -2.32886952102469        0.30217393038034
O           -2.23111497326181       -2.99264682208890        0.36185024188337
C           -1.22018199934339       -0.86948101006778        0.09016106790408
C           -2.41819965232710       -0.20193281731440       -0.02837520551398
C           -2.44061676345242        1.18867485963000       -0.23763038344343
N           -3.67558244373700        1.85046585644983       -0.34661616424981
C           -4.58153239580175        1.49189460154324       -1.35211355438565
C           -4.27647525289493        0.54720659885263       -2.32385805111487
C           -5.19609490665904        0.21747838751623       -3.30756797498644
C           -6.42858867849340        0.83726535020916       -3.34675944582357
C           -6.73396632159167        1.81000751424731       -2.40714443814746
C           -5.81999295192470        2.14220454023499       -1.42404691945512
O           -6.18055461074719        3.13867861599062       -0.55293864435924
C           -5.27931539462289        3.48765470393904        0.41943855446633
C           -5.66218187345516        4.48935584893200        1.29290681876758
C           -4.82414120537355        4.87584416959484        2.32741343335955
C           -3.61081290856440        4.23912799997511        2.49136492094226
C           -3.22053512955608        3.23753281023738        1.61569144305281
C           -4.03311941706597        2.86100694611995        0.55374670467348
C           -1.25656037136042        1.89117182568936       -0.32384730983814
C           -0.01647398699098        1.23799488790140       -0.19089796733545
C            1.20954634787903        1.92445470746203       -0.27960194002488
C            2.40830864673244        1.25506863338139       -0.14491579262579
N            3.62853060242576        1.94801233834185       -0.21364840636969
C            4.58722576205472        1.59381493117369       -1.17101321495000
C            4.34837188640842        0.62634292967543       -2.13901306186375
C            5.31991917529393        0.30010300574033       -3.07264399786235
C            6.53941135278774        0.94628684747431       -3.06590247942830
C            6.77886613833220        1.94254135667347       -2.13194181085263
C            5.81277416490944        2.27141331944649       -1.19873457645083
O            6.10993023610811        3.29231724875593       -0.33222338430662
C            5.15887915086742        3.63518402887730        0.59367523134132
C            5.47958335254628        4.66028781276776        1.46509810863756
C            4.58891245587582        5.04263791097734        2.45615759112336
C            3.38593420139096        4.37780417498751        2.58003804339174
C            3.05794644755926        3.35277178718173        1.70600896574596
C            3.92339670358671        2.98028000300827        0.68515246025327
C            2.41487605182662       -0.13427504076799        0.07437280432502
C            1.23201023553331       -0.83435966009949        0.14616728445979
C           -0.00154237468772       -0.16551313445684        0.01392334486261
C            1.26239133376516       -2.29114318969776        0.37178201192482
O            2.28944618306179       -2.92210005705839        0.50067177428554
H            2.55559348745509       -4.40813145693980       -1.62103238794202
H            2.02660924153565       -4.39652918469424       -3.30997869254084
H            2.06871644612743       -5.91250859173479       -2.40433253842678
H            0.25346975540972       -3.52479659170111       -1.84852923173736
H           -0.49592040860757       -4.71380098996648       -3.82613605075955
H           -0.42241123871361       -6.26661398844802       -2.99686904705461
H           -1.60122743901870       -5.05466630509285       -2.48938467444235
H            0.40567455046135       -7.21008959235260       -1.11112541923328
H            0.09772559737318       -8.13836582189137        1.13584991262323
H           -0.24326957005529       -6.65190732480500        3.05416137892629
H           -0.19942050483128       -2.90057623421056        2.77775521245515
H           -1.93374489012198       -5.10832526742616        3.97076239527208
H           -2.46990010529154       -3.88899665642085        2.81296022516447
H           -1.94454418203476       -3.40307340852751        4.43138248442703
H            0.56919545089046       -5.21312153063314        4.60973844580484
H            1.70505011346202       -4.13873785268304        3.79024136717165
H            0.58591419608816       -3.49420402851124        4.99706745880907
H           -3.33991486735151       -0.75800828921236        0.05683725856861
H           -3.31105109818194        0.06608458406793       -2.31943078933181
H           -4.93465615823201       -0.52646714672082       -4.04389957561575
H           -7.14899927785225        0.58144724262479       -4.10732375113539
H           -7.67853918215007        2.32962551352558       -2.42145744773681
H           -6.62646813589780        4.94937065559172        1.14823499198270
H           -5.12986813143329        5.66001868344623        3.00154901170471
H           -2.95575680301192        4.51216874262043        3.30423325102065
H           -2.27771174682534        2.73699028509433        1.77127631429168
H           -1.27397252323535        2.95740743049152       -0.49637018648550
H            1.20401036583002        2.98986622135981       -0.45775831712470
H            3.39425796025009        0.12422876006147       -2.17147274862504
H            5.10930572711782       -0.46225057733978       -3.80643495205200
H            7.30025971594968        0.69291447509090       -3.78686676411662
H            7.71134407206421        2.48338888850513       -2.11227451227180
H            6.43785377947039        5.14159803077084        1.35354029220686
H            4.84610781119102        5.84539165411845        3.12867297597007
H            2.69047207552499        4.64701302191123        3.35994051262893
H            2.12234399830794        2.83072442339992        1.83128568641338
H            3.34687284068007       -0.66410117295963        0.20366655562605
