  52
  -89.9451256900000       0.401454801185914      !
 N          5.9085230063       -1.8514284017        0.7561632109
 C          4.9275819596       -1.3014714184        0.5369189655
 C          3.7060675935       -0.6420561250        0.2678155175
 C          2.5000064694       -1.2761613238        0.5429038224
 C          1.2893837190       -0.6440740400        0.2896334405
 N          0.0961607936       -1.2799210968        0.6228214890
 C         -0.3100143852       -2.5420367215        0.2102617580
 C          0.3775713415       -3.4931789687       -0.5243581164
 C         -0.2800583346       -4.6711017155       -0.8290994394
 C         -1.5919011507       -4.8991100873       -0.4230073352
 C         -2.2901727930       -3.9444541269        0.2897864792
 C         -1.6490031668       -2.7550054922        0.6076775899
 C         -2.0719046440       -1.5600780593        1.2818102554
 C         -3.2362405277       -1.1117557445        1.8834707774
 C         -3.2216272807        0.1644074732        2.4271482498
 C         -2.0602727020        0.9267339237        2.3720939495
 N         -0.9326427148        0.5252795075        1.8053828310
 C         -0.9640537440       -0.6776093960        1.2594858166
 C          1.2849237572        0.6488941542       -0.2757342838
 N          0.0875010975        1.2771862977       -0.6081961167
 C         -0.3246091079        2.5394029989       -0.2026917390
 C          0.3549081120        3.4938031543        0.5352214076
 C         -0.3072330945        4.6717175418        0.8300685030
 C         -1.6157023642        4.8964691196        0.4111863229
 C         -2.3064702580        3.9381060244       -0.3038153658
 C         -1.6607641439        2.7483908711       -0.6117381694
 C         -2.0753998180        1.5507352980       -1.2859091141
 C         -3.2329947794        1.0988905916       -1.8977369611
 C         -3.2108882981       -0.1785924495       -2.4379232620
 C         -2.0486886223       -0.9386347506       -2.3701614947
 N         -0.9270599454       -0.5334981121       -1.7944377092
 C         -0.9659129081        0.6705907109       -1.2517229143
 C          2.4909723924        1.2879259813       -0.5331800361
 C          3.7015667774        0.6596322617       -0.2649019346
 C          4.9182777151        1.3243538154       -0.5423975810
 N          5.8947161224        1.8783284238       -0.7711494724
 H          2.5061752108       -2.2587069055        0.9909258555
 H          1.3853320081       -3.3208962902       -0.8683444991
 H          0.2354779701       -5.4291015182       -1.3994970878
 H         -2.0699683755       -5.8322616469       -0.6798671563
 H         -3.3136138326       -4.1107773424        0.5896557930
 H         -4.1196435297       -1.7311372571        1.9282428708
 H         -4.1017788605        0.5682552974        2.9016173727
 H         -2.0239750915        1.9190096330        2.8006544119
 H          1.3599796038        3.3239252223        0.8883599332
 H          0.2016962075        5.4322659670        1.4028927382
 H         -2.0974303049        5.8299343043        0.6603228314
 H         -3.3274861057        4.1020139872       -0.6133659963
 H         -4.1177965635        1.7160834200       -1.9511913599
 H         -4.0867243014       -0.5861603979       -2.9176415659
 H         -2.0073990274       -1.9329936330       -2.7934739523
 H          2.4896446067        2.2708646070       -0.9803799156
  52
  -89.9448010100000       0.284723988910867      !
 N          5.9283905843       -1.8735194305        0.7137904479
 C          4.9484428490       -1.3146657860        0.5141737960
 C          3.7277880522       -0.6474867156        0.2602778295
 C          2.5211832701       -1.2854136779        0.5272871793
 C          1.3149009233       -0.6435351658        0.2858366150
 N          0.1130741914       -1.2569340972        0.6342686509
 C         -0.3589985666       -2.4846043932        0.1914877584
 C          0.2736903125       -3.4442952236       -0.5799730804
 C         -0.4483540411       -4.5734800897       -0.9209703131
 C         -1.7678985369       -4.7458713852       -0.5115419320
 C         -2.4079106862       -3.7850581310        0.2461731186
 C         -1.7022550876       -2.6435424339        0.6009459283
 C         -2.0563733704       -1.4527000941        1.3206290736
 C         -3.1839566476       -0.9705747483        1.9651555721
 C         -3.0957880307        0.2842039851        2.5501854170
 C         -1.9027792026        0.9953819006        2.4878287445
 N         -0.8091431214        0.5614253207        1.8799724640
 C         -0.9087059145       -0.6228998246        1.3026554936
 C          1.3119182655        0.6513595642       -0.2757863698
 N          0.1067682128        1.2566207432       -0.6265287906
 C         -0.3698294574        2.4890767425       -0.2015405431
 C          0.2601414007        3.4663964559        0.5498652371
 C         -0.4632662613        4.6027177646        0.8636058532
 C         -1.7823536476        4.7649596031        0.4489326085
 C         -2.4213115152        3.7852255694       -0.2849762861
 C         -1.7139107304        2.6368259336       -0.6126918515
 C         -2.0648667405        1.4336003370       -1.3128992268
 C         -3.1937914711        0.9352160093       -1.9426862760
 C         -3.1006959979       -0.3258563847       -2.5131943124
 C         -1.9003337448       -1.0248117282       -2.4553729615
 N         -0.8065497888       -0.5762260263       -1.8586003848
 C         -0.9123967686        0.6110794798       -1.2887276955
 C          2.5164498432        1.2979618053       -0.5149042124
 C          3.7250883309        0.6650989195       -0.2447687639
 C          4.9444580473        1.3368673843       -0.4930188961
 N          5.9209527373        1.8980593012       -0.7029570845
 H          2.5247361838       -2.2755410577        0.9584719894
 H          1.2865194874       -3.3101559510       -0.9260345318
 H          0.0204965547       -5.3357294366       -1.5250203604
 H         -2.2984980402       -5.6405460980       -0.8007777279
 H         -3.4357175014       -3.9092502651        0.5517945735
 H         -4.0950782053       -1.5487111519        2.0117243846
 H         -3.9437980248        0.7114772079        3.0614510510
 H         -1.8108038535        1.9707627238        2.9455650098
 H          1.2733994971        3.3431218923        0.8986649655
 H          0.0048597146        5.3799350989        1.4488149458
 H         -2.3131696936        5.6666754729        0.7148401575
 H         -3.4490194369        3.9006099459       -0.5943265345
 H         -4.1096928085        1.5058001895       -1.9883922656
 H         -3.9503135570       -0.7676269184       -3.0093794369
 H         -1.8032984432       -2.0044653785       -2.9028458811
 H          2.5178750152        2.2878109855       -0.9466832784
  52
  -89.9445138600000       0.210115967042234      !
 N          5.8665533852       -1.8272978902        0.8399160630
 C          4.8891261860       -1.2822552838        0.5942601472
 C          3.6714662709       -0.6332636891        0.2864409298
 C          2.4625320670       -1.2625163995        0.5549837412
 C          1.2494302426       -0.6430435724        0.2742730626
 N          0.0674424147       -1.3095752219        0.5838042453
 C         -0.2532202743       -2.6101791377        0.2152504107
 C          0.4974244521       -3.5421594139       -0.4823694239
 C         -0.0753648900       -4.7758220867       -0.7334506529
 C         -1.3682809551       -5.0771959977       -0.3151000908
 C         -2.1339845172       -4.1405365961        0.3507963370
 C         -1.5772875674       -2.8965391409        0.6156817012
 C         -2.0817189877       -1.7072094381        1.2414918424
 C         -3.2807556786       -1.3139942293        1.8119573923
 C         -3.3563007894       -0.0201642189        2.3065914685
 C         -2.2441880511        0.8113684078        2.2397543426
 N         -1.0843244345        0.4629416629        1.7032314182
 C         -1.0318471207       -0.7566436191        1.1976845788
 C          1.2480032337        0.6478432633       -0.2958552418
 N          0.0651112862        1.3109543726       -0.6089180317
 C         -0.2616432856        2.6070665468       -0.2278614538
 C          0.4884943483        3.5402121322        0.4686050243
 C         -0.0918742366        4.7670638913        0.7354636717
 C         -1.3917211329        5.0608642609        0.3338014741
 C         -2.1563680655        4.1230261028       -0.3316636517
 C         -1.5917996793        2.8861622281       -0.6125900310
 C         -2.0941732249        1.6971894807       -1.2407099901
 C         -3.2969640200        1.2994038142       -1.7999712081
 C         -3.3695745986        0.0078046348       -2.3006293491
 C         -2.2512915299       -0.8167066834       -2.2501990674
 N         -1.0878992440       -0.4637714172       -1.7243849020
 C         -1.0375507254        0.7536689760       -1.2132498461
 C          2.4603627250        1.2735597260       -0.5665480697
 C          3.6702795577        0.6532875403       -0.2820588737
 C          4.8877697800        1.3129797479       -0.5671543355
 N          5.8641305680        1.8639553738       -0.8039836717
 H          2.4653901398       -2.2350165036        1.0244188929
 H          1.4911681241       -3.3179619527       -0.8375121006
 H          0.4936851094       -5.5202351103       -1.2698604726
 H         -1.7781499418       -6.0533374490       -0.5264858109
 H         -3.1446812017       -4.3638504753        0.6569877959
 H         -4.1239521008       -1.9868348878        1.8665605627
 H         -4.2688927252        0.3441001217        2.7511979830
 H         -2.2769872121        1.8183738193        2.6327806585
 H          1.4876133176        3.3224855490        0.8124176745
 H          0.4768907891        5.5117328096        1.2718331256
 H         -1.8076922815        6.0314902220        0.5581867050
 H         -3.1723070669        4.3396565814       -0.6250452576
 H         -4.1450445310        1.9670524544       -1.8409268134
 H         -4.2847324106       -0.3602961184       -2.7367363538
 H         -2.2825569584       -1.8220464275       -2.6475967903
 H          2.4624161262        2.2453113059       -1.0374610825
  52
  -89.9435707200000       7.745008927235091E-002 !
 N          5.9080730388       -1.0332842977        1.7172849633
 C          4.9260600292       -0.7286203769        1.2120364102
 C          3.7043250367       -0.3616890956        0.6009224845
 C          2.4989939772       -0.7569987172        1.1686140270
 C          1.2943306811       -0.4104202924        0.5720664244
 N          0.0962454969       -0.8828806235        1.1112918061
 C         -0.9810467653       -1.3836890467        0.3943155726
 C         -1.0297343191       -1.8160009996       -0.9214061398
 C         -2.2428740300       -2.2733765811       -1.4013699568
 C         -3.3714518147       -2.3277297292       -0.5883125840
 C         -3.3096838582       -1.9611821719        0.7419380085
 C         -2.1032123131       -1.4948247756        1.2448549790
 C         -1.6710375008       -1.0662124554        2.5454014717
 C         -2.2550019317       -0.9250668334        3.7938297049
 C         -1.4528407242       -0.4510164844        4.8211878372
 C         -0.1222791004       -0.1322226998        4.5707837354
 N          0.4623396638       -0.2500574468        3.3875666888
 C         -0.3051847074       -0.7113354224        2.4178781418
 C          1.2933240760        0.4229120896       -0.5663499511
 N          0.0943702216        0.8905235086       -1.1079124788
 C         -0.9882694608        1.3855254837       -0.3949695181
 C         -1.0441639232        1.8190570895        0.9200641757
 C         -2.2613681570        2.2711935993        1.3948522317
 C         -3.3873236548        2.3186900516        0.5776905821
 C         -3.3191332246        1.9492281002       -0.7514440041
 C         -2.1085049450        1.4881982874       -1.2492018857
 C         -1.6703343320        1.0582314818       -2.5472805480
 C         -2.2507384508        0.9067705946       -3.7961823684
 C         -1.4432570538        0.4330223053       -4.8195131495
 C         -0.1109817297        0.1249187328       -4.5649056029
 N          0.4702342563        0.2525624104       -3.3810557323
 C         -0.3026088709        0.7128067961       -2.4151486034
 C          2.4970890640        0.7722844436       -1.1629719176
 C          3.7033642668        0.3782084252       -0.5963846526
 C          4.9243910841        0.7428561002       -1.2102871691
 N          5.9067844546        1.0423550587       -1.7175869102
 H          2.4915774955       -1.3486106342        2.0706130706
 H         -0.1535557837       -1.8053204677       -1.5520577751
 H         -2.3118432882       -2.5995454595       -2.4282823257
 H         -4.3024236603       -2.6840508088       -1.0024013867
 H         -4.1757145097       -2.0387687664        1.3812318443
 H         -3.2933135551       -1.1716944932        3.9590167974
 H         -1.8526878858       -0.3243312036        5.8147347702
 H          0.5165950806        0.2410442974        5.3591153846
 H         -0.1703728405        1.8134659381        1.5540975840
 H         -2.3358730482        2.5983979617        2.4210639909
 H         -4.3216502815        2.6709518430        0.9878425766
 H         -4.1834247137        2.0202317232       -1.3937358043
 H         -3.2905789270        1.1447647425       -3.9646001676
 H         -1.8403629014        0.2979127555       -5.8131044216
 H          0.5322668921       -0.2476669034       -5.3500801996
 H          2.4882564254        1.3625534140       -2.0659692040
  52
  -89.9425484400000       2.625515358863445E-002 !
 N          5.9515986335       -0.8951603031        1.7826358830
 C          4.9668671307       -0.6432695522        1.2541790833
 C          3.7423101408       -0.3264361326        0.6206243839
 C          2.5391147604       -0.7050331117        1.2073727991
 C          1.3381418623       -0.3960773610        0.5878074368
 N          0.1273184600       -0.8667821428        1.1025166838
 C         -0.8748376138       -1.4468953525        0.3365619980
 C         -0.7941830852       -1.9764132145       -0.9413832269
 C         -1.9453338083       -2.5147762491       -1.4852201296
 C         -3.1397565273       -2.5439453500       -0.7704060957
 C         -3.2095536850       -2.0648230452        0.5232548908
 C         -2.0658562920       -1.5189357197        1.0903473373
 C         -1.7614483435       -0.9653055117        2.3798214732
 C         -2.4652886502       -0.7153619858        3.5461940816
 C         -1.7728339510       -0.1230030414        4.5915093295
 C         -0.4274878817        0.1954165595        4.4392445702
 N          0.2713581037       -0.0244748657        3.3351056761
 C         -0.3948881372       -0.5893392656        2.3457302023
 C          1.3345556142        0.3886607652       -0.5859913166
 N          0.1200002392        0.8504346927       -1.0993215814
 C         -0.8833793935        1.4281516659       -0.3332795284
 C         -0.8052057704        1.9540500466        0.9462336849
 C         -1.9581449965        2.4880719814        1.4906996179
 C         -3.1514669528        2.5182173221        0.7743059086
 C         -3.2178079779        2.0463529261       -0.5222654064
 C         -2.0724657447        1.5043443625       -1.0897131461
 C         -1.7638502547        0.9604381424       -2.3823067783
 C         -2.4621110883        0.7267706373       -3.5554049869
 C         -1.7653104448        0.1463774908       -4.6045471421
 C         -0.4218431453       -0.1781484959       -4.4487169968
 N          0.2718498160        0.0267192095       -3.3383993349
 C         -0.3977791072        0.5826461373       -2.3462410436
 C          2.5327207814        0.7090808890       -1.2052654017
 C          3.7393038576        0.3445456085       -0.6166606288
 C          4.9604011097        0.6801331886       -1.2472568773
 N          5.9405497045        0.9400053380       -1.7801870434
 H          2.5339536484       -1.2533283875        2.1366073332
 H          0.1330284552       -1.9756269117       -1.4947128533
 H         -1.9133787919       -2.9227112034       -2.4842793045
 H         -4.0187890468       -2.9669938744       -1.2326369293
 H         -4.1285233531       -2.1173309044        1.0865336728
 H         -3.5119250968       -0.9664248844        3.6344246054
 H         -2.2701375780        0.0958858314        5.5231772384
 H          0.1268316942        0.6569716766        5.2447918452
 H          0.1213201036        1.9545687309        1.5006250645
 H         -1.9279287823        2.8917431615        2.4915544550
 H         -4.0322419153        2.9368909221        1.2372001590
 H         -4.1354775783        2.1011714435       -1.0874223301
 H         -3.5073076937        0.9826890313       -3.6465223028
 H         -2.2577731593       -0.0585106395       -5.5419545129
 H          0.1351593596       -0.6325060090       -5.2564598554
 H          2.5224788909        1.2574846498       -2.1343885142
