  52
        -89.94512569
 N          5.9085230063       -1.8514284017        0.7561632109
 C          4.9275819596       -1.3014714184        0.5369189655
 C          3.7060675935       -0.6420561250        0.2678155175
 C          2.5000064694       -1.2761613238        0.5429038224
 C          1.2893837190       -0.6440740400        0.2896334405
 N          0.0961607936       -1.2799210968        0.6228214890
 C         -0.3100143852       -2.5420367215        0.2102617580
 C          0.3775713415       -3.4931789687       -0.5243581164
 C         -0.2800583346       -4.6711017155       -0.8290994394
 C         -1.5919011507       -4.8991100873       -0.4230073352
 C         -2.2901727930       -3.9444541269        0.2897864792
 C         -1.6490031668       -2.7550054922        0.6076775899
 C         -2.0719046440       -1.5600780593        1.2818102554
 C         -3.2362405277       -1.1117557445        1.8834707774
 C         -3.2216272807        0.1644074732        2.4271482498
 C         -2.0602727020        0.9267339237        2.3720939495
 N         -0.9326427148        0.5252795075        1.8053828310
 C         -0.9640537440       -0.6776093960        1.2594858166
 C          1.2849237572        0.6488941542       -0.2757342838
 N          0.0875010975        1.2771862977       -0.6081961167
 C         -0.3246091079        2.5394029989       -0.2026917390
 C          0.3549081120        3.4938031543        0.5352214076
 C         -0.3072330945        4.6717175418        0.8300685030
 C         -1.6157023642        4.8964691196        0.4111863229
 C         -2.3064702580        3.9381060244       -0.3038153658
 C         -1.6607641439        2.7483908711       -0.6117381694
 C         -2.0753998180        1.5507352980       -1.2859091141
 C         -3.2329947794        1.0988905916       -1.8977369611
 C         -3.2108882981       -0.1785924495       -2.4379232620
 C         -2.0486886223       -0.9386347506       -2.3701614947
 N         -0.9270599454       -0.5334981121       -1.7944377092
 C         -0.9659129081        0.6705907109       -1.2517229143
 C          2.4909723924        1.2879259813       -0.5331800361
 C          3.7015667774        0.6596322617       -0.2649019346
 C          4.9182777151        1.3243538154       -0.5423975810
 N          5.8947161224        1.8783284238       -0.7711494724
 H          2.5061752108       -2.2587069055        0.9909258555
 H          1.3853320081       -3.3208962902       -0.8683444991
 H          0.2354779701       -5.4291015182       -1.3994970878
 H         -2.0699683755       -5.8322616469       -0.6798671563
 H         -3.3136138326       -4.1107773424        0.5896557930
 H         -4.1196435297       -1.7311372571        1.9282428708
 H         -4.1017788605        0.5682552974        2.9016173727
 H         -2.0239750915        1.9190096330        2.8006544119
 H          1.3599796038        3.3239252223        0.8883599332
 H          0.2016962075        5.4322659670        1.4028927382
 H         -2.0974303049        5.8299343043        0.6603228314
 H         -3.3274861057        4.1020139872       -0.6133659963
 H         -4.1177965635        1.7160834200       -1.9511913599
 H         -4.0867243014       -0.5861603979       -2.9176415659
 H         -2.0073990274       -1.9329936330       -2.7934739523
 H          2.4896446067        2.2708646070       -0.9803799156
