  67
       -109.44255628
 C         -0.3527021974        3.4513259701       -1.3318157914
 C         -1.7013921738        3.7563172464       -1.4425574773
 C         -2.6556345660        2.7955628062       -1.1673171090
 C         -2.2834049440        1.5178480625       -0.7570234627
 N         -3.2654806197        0.5531691329       -0.5375788498
 C         -4.3614146543        0.6938978696        0.2924283755
 C         -4.7205426052        1.7560844218        1.1079375446
 C         -5.8756450801        1.6320030696        1.8574579191
 C         -6.6531707008        0.4778839440        1.8082432606
 C         -6.2864388775       -0.5920901575        1.0155988631
 C         -5.1317133860       -0.4896702811        0.2521381798
 C         -4.4634067319       -1.3813924396       -0.6550041414
 C         -4.7443350841       -2.6603817219       -1.1154688272
 C         -3.8881894565       -3.2363127125       -2.0326493485
 C         -2.7762374569       -2.5447467175       -2.5062861447
 C         -2.4793077084       -1.2698276627       -2.0642295667
 C         -3.3161413207       -0.7001226581       -1.1168068060
 C         -0.9180539567        1.2244663343       -0.6028462834
 C         -0.4727322214       -0.0402403292       -0.0648076873
 N         -1.1558884860       -0.9223089629        0.6053113324
 N         -0.3128880600       -1.8983536514        0.9564759000
 C          0.8615866959       -1.5797748898        0.4964528844
 C          2.0769797102       -2.3544205033        0.6360754423
 C          1.9682646060       -3.7313452504        0.8251264653
 C          3.1002963368       -4.5174974613        0.9014916510
 C          4.3555939263       -3.9368158636        0.7922953911
 C          4.4782459959       -2.5686429481        0.6386521513
 C          3.3472892801       -1.7617290431        0.5694238776
 N          3.4903315361       -0.3731470853        0.4614703636
 C          2.9078649154        0.5635341837        1.2941349020
 C          2.1508781246        0.3736952426        2.4413627387
 C          1.6697765369        1.4964103438        3.0868719175
 C          1.9462315018        2.7792927958        2.6185061295
 C          2.7276514505        2.9740642306        1.4976429791
 C          3.2170892572        1.8604146667        0.8265252233
 C          4.0303670429        1.6883787367       -0.3457658446
 C          4.6185654660        2.5738757722       -1.2391710302
 C          5.3357716347        2.0618111735       -2.3019954007
 C          5.4585156262        0.6866965176       -2.4881393390
 C          4.8800849437       -0.2145384703       -1.6144679767
 C          4.1759647216        0.2949921823       -0.5339604321
 O          0.8258421198       -0.4054686866       -0.1715420731
 C          0.0347948468        2.1941304546       -0.9164302828
 H          0.3946942519        4.1942907990       -1.5630878850
 H         -2.0097607378        4.7414474507       -1.7592639050
 H         -3.7054471710        3.0176564926       -1.2877051938
 H         -4.1153736916        2.6486013198        1.1651857117
 H         -6.1806376601        2.4477799288        2.4964236599
 H         -7.5503945476        0.4203241777        2.4065794227
 H         -6.8807973435       -1.4929206686        0.9903323003
 H         -5.6156400882       -3.1902579735       -0.7611571580
 H         -4.0830062867       -4.2339597135       -2.3974747133
 H         -2.1337006474       -3.0135607401       -3.2376051436
 H         -1.6230087991       -0.7355833825       -2.4511391739
 H          0.9804096881       -4.1582306887        0.8952379889
 H          3.0074314080       -5.5833574946        1.0407627039
 H          5.2426662499       -4.5499531057        0.8437261399
 H          5.4530865675       -2.1066587129        0.5895455771
 H          1.9360855459       -0.6166057358        2.8164914024
 H          1.0652690100        1.3749387870        3.9732071781
 H          1.5473098123        3.6307997072        3.1490586638
 H          2.9546461267        3.9686516153        1.1441690773
 H          4.5112240291        3.6395572263       -1.1029092254
 H          5.8020664951        2.7331275488       -3.0074400637
 H          6.0162227812        0.3162902472       -3.3355768366
 H          4.9679702035       -1.2789358399       -1.7737228062
 H          1.0815596138        1.9549198237       -0.8079569659
