  59
  -84.8579994375000       0.826514030391276      !
 Br         5.3782609031        4.3633242666       -0.0371709522
 C          5.8404232393        3.0990601791        1.3882824677
 C          4.6008058641        2.5046831607        2.0280657131
 C          3.7917021206        1.6463917659        1.0594405259
 C          2.5599453137        1.0428467463        1.7267230133
 C          1.7343630041        0.2202385597        0.7426335983
 C          0.5106108176       -0.3879326525        1.4207988064
 C         -0.3641875613       -1.2002974367        0.4530272536
 C         -1.5808386707       -1.7530942838        1.2170154155
 C         -2.5226968662       -2.5563322025        0.3208639939
 C         -3.8672595028       -2.8680448492        0.9824901439
 C         -4.6345007581       -1.6407509103        1.4791578802
 C         -4.8867094865       -0.5941529272        0.3950989001
 C         -5.4445279874        0.6964626319        0.9641280486
 Br        -4.1176926414        1.5883745945        2.0955560213
 C         -0.8171368326       -0.3670218207       -0.7184037105
 C         -1.6043736369        0.7625429840       -0.6995607701
 C         -1.9540774700        1.3236473475       -1.9196629504
 Br        -3.1201633974        2.8430651575       -1.9236076058
 C         -1.5165549587        0.8035558132       -3.1276038517
 C         -0.7094038783       -0.3229326172       -3.1376609819
 C         -0.3699843641       -0.9139811819       -1.9310291806
 C          0.4078629714       -2.1048188557       -1.6316972878
 C          1.0678768697       -2.9928015061       -2.4654412999
 C          1.7412327726       -4.0646152672       -1.9027506613
 C          1.7419375575       -4.2291502830       -0.5266457979
 Br         2.6804180525       -5.7135137297        0.2294868165
 C          1.0848686479       -3.3516792774        0.3249277595
 C          0.4173978128       -2.2872535347       -0.2390382933
 H          6.4584940457        2.3349496395        0.9183981624
 H          6.4324925247        3.6671124979        2.1042398153
 H          4.9268801700        1.8933447740        2.8745366390
 H          3.9690501918        3.3057428491        2.4192482007
 H          4.4225313755        0.8434583251        0.6695126641
 H          3.4722534246        2.2596669681        0.2146422435
 H          1.9403134064        1.8444745569        2.1338732451
 H          2.8715649400        0.4085819556        2.5598594972
 H          2.3532615295       -0.5749591786        0.3240851956
 H          1.4127640612        0.8601103326       -0.0798044203
 H          0.8338268475       -1.0397394116        2.2331676310
 H         -0.0973621797        0.4093241216        1.8490417935
 H         -1.2346220190       -2.3798704539        2.0393303246
 H         -2.1049799990       -0.8994599205        1.6396979644
 H         -2.6949997376       -2.0109452767       -0.6061823029
 H         -2.0446687817       -3.5000877891        0.0497918344
 H         -3.7018029925       -3.5290804868        1.8358864439
 H         -4.4846944006       -3.4093764118        0.2620721807
 H         -4.0776631338       -1.1808700160        2.2956811358
 H         -5.5920842857       -1.9730512524        1.8878961637
 H         -5.6039337662       -0.9785078738       -0.3348362275
 H         -3.9586365519       -0.3706128819       -0.1289411743
 H         -5.6879133670        1.4135926309        0.1816220382
 H         -6.3120299648        0.5276232138        1.6007477429
 H         -1.9459837350        1.1985190077        0.2248571678
 H         -1.8095206407        1.2736299936       -4.0535296073
 H         -0.3671498605       -0.7317273112       -4.0756859720
 H          1.0646466313       -2.8596751191       -3.5362600366
 H          2.2643712769       -4.7711343091       -2.5283724110
 H          1.1039407972       -3.5077718797        1.3923153681
  59
  -84.8562746101000       0.133221537191172      !
 Br         5.5902011943        2.2745831978       -0.8988332716
 C          4.8257486070        3.5249872451        0.4034653059
 C          3.5267761410        2.9915808153        0.9759041940
 C          3.7423935001        1.7600174149        1.8525676783
 C          2.4328547332        1.1465161295        2.3456742431
 C          1.6614930986        0.4455929889        1.2309518805
 C          0.4098379348       -0.2440115810        1.7653440332
 C         -0.3784167070       -0.9646679228        0.6592476649
 C         -1.6402423358       -1.6032768953        1.2645544226
 C         -2.4852199130       -2.3304770167        0.2190705277
 C         -3.8756962424       -2.7188226463        0.7267045617
 C         -4.7116439106       -1.5509143978        1.2553539820
 C         -4.8855493195       -0.4152855023        0.2483466058
 C         -5.5329449847        0.8073619223        0.8700618662
 Br        -4.3493185866        1.6212290209        2.2008541668
 C         -0.7499902292       -0.0213487127       -0.4563592218
 C         -1.5630346174        1.0881278775       -0.3917074302
 C         -1.8167776268        1.7697364920       -1.5737298868
 Br        -3.0115324125        3.2673113599       -1.5247840932
 C         -1.2614520653        1.3871964019       -2.7844518165
 C         -0.4281236002        0.2809378257       -2.8379266754
 C         -0.1824707316       -0.4292391003       -1.6735891624
 C          0.5945281119       -1.6333363129       -1.4309783597
 C          1.3526010559       -2.4140210034       -2.2882323388
 C          1.9954834908       -3.5317695571       -1.7823785351
 C          1.8684289717       -3.8481037202       -0.4390237029
 Br         2.7600440412       -5.3974132218        0.2377515825
 C          1.1150578239       -3.0772434220        0.4357855982
 C          0.4797399226       -1.9657326687       -0.0712999015
 H          5.5851879020        3.6585790183        1.1727652228
 H          4.6775733367        4.4580600333       -0.1380383792
 H          3.0688292938        3.7878398174        1.5694898257
 H          2.8476615575        2.7505158098        0.1568243838
 H          4.3545495275        2.0420998918        2.7128746339
 H          4.2905091761        1.0051573454        1.2850230559
 H          1.8088955340        1.9234435944        2.7928005143
 H          2.6627319037        0.4175714439        3.1257016226
 H          2.3092311713       -0.2934178425        0.7580383265
 H          1.3666022326        1.1679112318        0.4712424763
 H          0.6923229035       -0.9723399092        2.5260474352
 H         -0.2415297907        0.4962612675        2.2310433592
 H         -1.3491845211       -2.3007380962        2.0503498774
 H         -2.2168525038       -0.8019484598        1.7201272533
 H         -2.5866614999       -1.7029885562       -0.6657110175
 H         -1.9660836631       -3.2388670430       -0.0942967194
 H         -3.7724798093       -3.4502936132        1.5311378161
 H         -4.4142998622       -3.2031200870       -0.0910065359
 H         -4.2423411656       -1.1582537147        2.1573645752
 H         -5.6954439184       -1.9312036305        1.5416677732
 H         -5.5163517381       -0.7456722485       -0.5809150233
 H         -3.9167236297       -0.1281952324       -0.1572826257
 H         -5.7206556839        1.5873351943        0.1337055322
 H         -6.4523757955        0.5646755855        1.4006312640
 H         -1.9961618244        1.4190901833        0.5379515663
 H         -1.4829363793        1.9477568894       -3.6793175972
 H          0.0071907693       -0.0207760927       -3.7778614985
 H          1.4495558647       -2.1626861641       -3.3330442583
 H          2.5944972617       -4.1562206270       -2.4267610827
 H          1.0389655964       -3.3487874493        1.4771209088
  59
  -84.8544920789000       2.020132335789725E-002 !
 Br         4.0326540918        0.8350668737       -1.7363823938
 C          4.4089420928        0.4305562483        0.1382343133
 C          4.4294176543        1.6794406301        1.0010466268
 C          3.1461337854        2.5074891771        0.9321648155
 C          1.9013750435        1.7192260063        1.3272541765
 C          0.6408279275        2.5707367161        1.2107096946
 C         -0.6506869729        1.7803952146        1.4263858249
 C         -1.0426724565        0.8376035188        0.2705747751
 C         -2.4764856894        0.3328386287        0.5260405379
 C         -2.9649438194       -0.6338881976       -0.5519621068
 C         -4.2642148086       -1.3506464351       -0.1765077985
 C         -4.2100063669       -2.1162975706        1.1473262697
 C         -3.0879344453       -3.1512388022        1.2106685818
 C         -2.9151807636       -3.7232355571        2.6047124572
 Br        -2.2649539652       -2.3528450482        3.8446512927
 C         -0.9048120852        1.4924469345       -1.0800122433
 C         -1.5124717410        2.6395002767       -1.5409999880
 C         -1.2064617613        3.0608270451       -2.8276487286
 Br        -2.0335076780        4.6521786268       -3.4915019382
 C         -0.3193692790        2.3740017952       -3.6417053281
 C          0.2855296139        1.2182477604       -3.1763973063
 C         -0.0143235680        0.7782283113       -1.8978956827
 C          0.4588055890       -0.3774771352       -1.1569365461
 C          1.3187455934       -1.4023486869       -1.5168751332
 C          1.5904916102       -2.4016835681       -0.5947822988
 C          1.0027236239       -2.3566271788        0.6601843021
 Br         1.3548051483       -3.7726919379        1.9094630141
 C          0.1485240010       -1.3329116942        1.0451311029
 C         -0.1163906393       -0.3425905827        0.1244395277
 H          3.6341629160       -0.2680589594        0.4466626849
 H          5.3767698113       -0.0690813873        0.1444655295
 H          4.6012499046        1.3522020482        2.0305848892
 H          5.2721144395        2.3087676429        0.7045490861
 H          3.0167026013        2.8798082355       -0.0862198955
 H          3.2582394036        3.3740546950        1.5871780824
 H          2.0032153595        1.3480305435        2.3496445799
 H          1.7996453412        0.8672583498        0.6636233153
 H          0.6174296991        3.0350286051        0.2249367321
 H          0.6815653097        3.3708923155        1.9535892691
 H         -0.5687842439        1.1890897980        2.3383654966
 H         -1.4664434072        2.4918001676        1.5609079407
 H         -2.4711045993       -0.1581256788        1.4959180910
 H         -3.1526743943        1.1860643664        0.5801606568
 H         -3.1315694855       -0.0824502950       -1.4792936642
 H         -2.1930853567       -1.3735559404       -0.7573988731
 H         -4.5161388468       -2.0445950045       -0.9815437999
 H         -5.0716179172       -0.6185625989       -0.1089753324
 H         -5.1702530231       -2.6158821792        1.2987341339
 H         -4.0838367956       -1.4046785242        1.9628810056
 H         -2.1480386345       -2.6969709068        0.9012848626
 H         -3.3051307906       -3.9795049185        0.5311067102
 H         -3.8542714819       -4.0816594084        3.0248083769
 H         -2.1681149800       -4.5156188813        2.6295622297
 H         -2.1989675568        3.2030585472       -0.9288283530
 H         -0.1021015418        2.7432262178       -4.6316799941
 H          0.9866194671        0.6848184800       -3.7981839493
 H          1.7743958593       -1.4293026721       -2.4935941110
 H          2.2517800584       -3.2149071957       -0.8510211618
 H         -0.2807882422       -1.3172603386        2.0330225486
  59
  -84.8544855911000       2.006310905965453E-002 !
 Br         4.2208341648        0.5282932094       -1.5062997199
 C          4.3817793480        0.3092123208        0.4294319876
 C          4.3871142952        1.6429403315        1.1540810122
 C          3.1443160292        2.4953458091        0.8978370344
 C          1.8532128794        1.8136005859        1.3392981514
 C          0.6271678284        2.6634872682        1.0177171578
 C         -0.6939392844        1.9356781595        1.2764613571
 C         -1.1005512728        0.9232969404        0.1869100844
 C         -2.5135531690        0.4015430149        0.5104810613
 C         -3.0165957069       -0.6112698308       -0.5175919713
 C         -4.2724399315       -1.3592989450       -0.0644025759
 C         -4.1277340351       -2.1019454813        1.2655007972
 C         -2.9705268154       -3.0985740038        1.2879069041
 C         -2.7320238073       -3.6674579370        2.6734123906
 Br        -2.1030460838       -2.2760207387        3.9008000823
 C         -1.0161747101        1.5190018645       -1.1955722622
 C         -1.6754585035        2.6205806563       -1.6946789124
 C         -1.4173080976        2.9888947116       -3.0078465426
 Br        -2.3225961256        4.5113099623       -3.7280098400
 C         -0.5254398893        2.2949959662       -3.8107437875
 C          0.1336364085        1.1863640987       -3.3058172511
 C         -0.1189192518        0.7983850981       -2.0004064785
 C          0.4058470254       -0.3081695608       -1.2204497788
 C          1.2860763361       -1.3236104212       -1.5578797693
 C          1.5989052737       -2.2806090127       -0.6051345267
 C          1.0298913803       -2.2044218517        0.6572556125
 Br         1.4453041185       -3.5615859744        1.9533493398
 C          0.1543992585       -1.1904813018        1.0188868120
 C         -0.1491027048       -0.2396788413        0.0677452806
 H          3.5407745314       -0.3147121050        0.7231752643
 H          5.3135125128       -0.2315350318        0.5892610436
 H          4.4696164245        1.4259118446        2.2229703859
 H          5.2732743197        2.2093890358        0.8577350569
 H          3.0786677734        2.7184933066       -0.1689466687
 H          3.2596040536        3.4441579138        1.4258611105
 H          1.8889128324        1.6108920153        2.4121968542
 H          1.7582332890        0.8677053087        0.8173201275
 H          0.6705010378        2.9708801623       -0.0270324149
 H          0.6513584030        3.5676478350        1.6304063098
 H         -0.6407366774        1.4132536326        2.2316203379
 H         -1.4902542764        2.6777227618        1.3441514125
 H         -2.4661130353       -0.0564909278        1.4952500113
 H         -3.2051884761        1.2425783539        0.5599854629
 H         -3.2425578976       -0.0923607542       -1.4511560061
 H         -2.2297047640       -1.3307655582       -0.7373227007
 H         -4.5449674782       -2.0731385214       -0.8450697986
 H         -5.0967274008       -0.6499425935        0.0343547878
 H         -5.0621153937       -2.6300522482        1.4706440034
 H         -3.9854695042       -1.3748086201        2.0644238840
 H         -2.0574020757       -2.6126982280        0.9486799439
 H         -3.1832017116       -3.9323678153        0.6137262662
 H         -3.6413810701       -4.0666677563        3.1200557222
 H         -1.9512771587       -4.4266568277        2.6721909346
 H         -2.3687421690        3.1877735233       -1.0936096935
 H         -0.3481328466        2.6217941257       -4.8234493915
 H          0.8358224756        0.6457261092       -3.9205827447
 H          1.7275649095       -1.3755248404       -2.5398220042
 H          2.2784291297       -3.0842609425       -0.8426660213
 H         -0.2570476264       -1.1478327363        2.0136109069
