  59
        -85.24214655
 Br         2.2397617742        3.8477082247        0.3914947475
 C          0.7801433586        4.2825757629       -0.8331740278
 C          1.1786051439        4.1016719537       -2.2868172280
 C          1.6933406966        2.7021801771       -2.6240065907
 C          0.6895062374        1.5997619091       -2.3017193028
 C          1.2553227821        0.2189838016       -2.6194229266
 C          0.3589067689       -0.9291107787       -2.1530713575
 C          0.3344599460       -1.1637982747       -0.6290201392
 C         -0.3881731965       -2.4982112302       -0.3588088469
 C         -0.4924006016       -2.8243400398        1.1304924829
 C         -1.4361134200       -3.9920247347        1.4283716226
 C         -2.8571261089       -3.8166698504        0.8883063867
 C         -3.5451356920       -2.5430905130        1.3769775271
 C         -4.8495229141       -2.2818626134        0.6484746734
 Br        -4.5226501361       -1.8609748307       -1.2367895027
 C          1.7120961940       -1.1317692616       -0.0182802717
 C          2.8027095907       -1.9152878383       -0.3251228811
 C          3.9829089055       -1.6798607045        0.3664889878
 Br         5.5134686662       -2.7510707437       -0.0421694999
 C          4.0913285491       -0.6934001495        1.3342135858
 C          2.9910101739        0.0887864983        1.6435113967
 C          1.8025924536       -0.1375572030        0.9693249991
 C          0.5098286893        0.5143448023        1.0802860083
 C          0.0679514992        1.5279049369        1.9150642410
 C         -1.2467362372        1.9557962510        1.8088734852
 C         -2.0873724557        1.3674362307        0.8763469773
 Br        -3.9176810169        1.9412491599        0.7733547692
 C         -1.6616608315        0.3597080687        0.0224804813
 C         -0.3538700686       -0.0599948567        0.1325778112
 H         -0.0424812196        3.6297240229       -0.5493652003
 H          0.5159316563        5.3180414342       -0.6225318959
 H          0.2929603342        4.3229925989       -2.8894870286
 H          1.9493648186        4.8326719413       -2.5430782172
 H          2.6112734412        2.5154670117       -2.0627410541
 H          1.9458261156        2.6732412242       -3.6860609662
 H         -0.2335262486        1.7590584249       -2.8639250555
 H          0.4548851216        1.6366061130       -1.2433246804
 H          2.2352252165        0.1221423423       -2.1522230554
 H          1.3924472496        0.1301916420       -3.6997429775
 H         -0.6629998316       -0.7540805481       -2.4894170020
 H          0.7124941489       -1.8485741570       -2.6212751887
 H         -1.3803650473       -2.4148601289       -0.7950946484
 H          0.1416097783       -3.3026149370       -0.8691214840
 H          0.4986581387       -3.0765843495        1.5125488554
 H         -0.8274779042       -1.9436141156        1.6755825387
 H         -1.4788412997       -4.1286786359        2.5112443488
 H         -1.0229644497       -4.9065096082        0.9977528800
 H         -3.4510829453       -4.6844055212        1.1863547810
 H         -2.8231695456       -3.8069844181       -0.2008231279
 H         -2.8870379823       -1.6880453457        1.2310771912
 H         -3.7657714429       -2.6240076170        2.4445802795
 H         -5.5055926925       -3.1515821177        0.6486887997
 H         -5.3749283141       -1.4173272594        1.0523606918
 H          2.7545099412       -2.6838107361       -1.0805551345
 H          5.0313491161       -0.5374344084        1.8398001801
 H          3.0700165460        0.8668861941        2.3858127274
 H          0.7281395780        1.9827372626        2.6358991041
 H         -1.6187312308        2.7392306060        2.4508577306
 H         -2.3343347380       -0.0673223821       -0.7025286809
