  87
       -129.96295758
 C          6.9733568102        3.0301709938        0.2984487376
 C          5.7569075965        2.2715378689       -0.1440416246
 C          4.7083304273        2.9596362588       -0.7623793244
 C          3.5583287370        2.3226863945       -1.1823512114
 C          3.4661509567        0.9538907539       -0.9824714232
 C          4.5137885173        0.2384782042       -0.3637387454
 C          5.6561393123        0.9062784600        0.0552197763
 C          4.0939722359       -1.1334726261       -0.3063277966
 C          4.6989621647       -2.2990205406        0.1461870474
 C          4.0332068383       -3.5034371455        0.0087418933
 C          4.6464383467       -4.7850589118        0.4911401980
 C          2.7786358579       -3.5350879777       -0.6099008043
 C          2.1554664558       -2.3927912920       -1.0667848135
 C          2.8052128115       -1.1845707420       -0.8769160184
 N          2.4240322399        0.0906704541       -1.2568282139
 C          1.2014033506        0.4401226953       -1.8347138784
 C          1.1963795653        1.0732395997       -3.0749652942
 C          0.0001344705        1.4116078390       -3.6785804456
 C         -1.1967193331        1.0722899542       -3.0765895690
 C         -1.2027407149        0.4389997122       -1.8365520361
 N         -2.4255910044        0.0873627595       -1.2602666045
 C         -2.8036631656       -1.1889985739       -0.8811845930
 C         -2.1527165090       -2.3958519124       -1.0755781867
 C         -2.7719050822       -3.5397948039       -0.6176080210
 C         -4.0239472835       -3.5110124191        0.0062990532
 C         -4.6295004228       -4.7934709048        0.4958864500
 C         -4.6918624026       -2.3081469455        0.1467923431
 C         -4.0908152386       -1.1409576111       -0.3069120950
 C         -4.5134392553        0.2302056544       -0.3621787313
 C         -5.6555763086        0.8955222911        0.0612821450
 C         -5.7594889666        2.2607672442       -0.1361753084
 C         -6.9764727662        3.0163308859        0.3101031885
 C         -4.7147726163        2.9511896603       -0.7584694434
 C         -3.5649815250        2.3168102913       -1.1827817815
 C         -3.4690101518        0.9481895879       -0.9833899970
 C         -0.0009640721        0.1633152641       -1.1747279107
 P         -0.0031596400       -0.4162906974        0.5779128837
 O         -0.0086302912       -1.8657639534        0.7923619308
 C          1.4246717476        0.3923502169        1.3744833534
 C          2.2346184775       -0.4378745583        2.1371502918
 C          3.3136636893        0.0830360145        2.8266936482
 C          3.5798022315        1.4404310385        2.7668313940
 C          2.7690787893        2.2728080921        2.0131430666
 C          1.6965180914        1.7525101718        1.3132057063
 C         -1.4270207413        0.4038414524        1.3696999539
 C         -1.6913529464        1.7650705457        1.3009588002
 C         -2.7627066240        2.2946806899        1.9958056530
 C         -3.5798033198        1.4704974860        2.7515383528
 C         -3.3210399560        0.1119998316        2.8189377690
 C         -2.2431571881       -0.4181661050        2.1346888588
 H          7.4458316593        3.5235247989       -0.5504566433
 H          7.6989188781        2.3652086892        0.7596648070
 H          6.7003969773        3.7999885187        1.0197234144
 H          4.8040731489        4.0260841809       -0.9098707568
 H          2.7554156149        2.8777303472       -1.6448730560
 H          6.4553726120        0.3618116794        0.5360531000
 H          5.6818315003       -2.2608817207        0.5927845142
 H          5.6005183074       -4.6002086921        0.9799028590
 H          4.8111928803       -5.4665291871       -0.3443942671
 H          3.9817736338       -5.2809389412        1.1984522522
 H          2.2854706753       -4.4879614735       -0.7332136013
 H          1.1948757908       -2.4428687682       -1.5542708835
 H          2.1384081045        1.2843060630       -3.5579853609
 H          0.0006628085        1.9100832292       -4.6361570493
 H         -2.1382630636        1.2824783695       -3.5609094403
 H         -1.1940194523       -2.4433620287       -1.5671327454
 H         -2.2774617905       -4.4916068948       -0.7438332480
 H         -4.7370595738       -5.5028475397       -0.3240467438
 H         -5.6089468710       -4.6191492478        0.9342391198
 H         -3.9883326966       -5.2507639151        1.2486215761
 H         -5.6732274060       -2.2723334620        0.5968658492
 H         -6.4522078916        0.3490142352        0.5441216532
 H         -6.6990649437        3.8130611920        0.9995567678
 H         -7.4752538824        3.4748747716       -0.5434687534
 H         -7.6819822750        2.3563001048        0.8082225114
 H         -4.8134316604        4.0174564587       -0.9052630459
 H         -2.7644965880        2.8737259493       -1.6472746604
 H          2.0078108585       -1.4937552726        2.1668483249
 H          3.9474073095       -0.5697509994        3.4084336594
 H          4.4215961822        1.8519835759        3.3036255784
 H          2.9805078151        3.3306622163        1.9612264584
 H          1.0853836788        2.4044455692        0.7069891753
 H         -1.0760978048        2.4105984635        0.6919535064
 H         -2.9682570074        3.3533788096        1.9380276657
 H         -4.4207733026        1.8892374813        3.2839971885
 H         -3.9598423407       -0.5343967351        3.4022559685
 H         -2.0216438633       -1.4749802472        2.1705215803
