90
 energy: -145.344279104728 gnorm: 0.000067366309 xtb: 6.7.1 (edcfbbe)
C          -11.09002168028615        0.70455549370677       -1.80201596948038
C           -9.91428052701102        1.29964856713901       -2.25473145839277
C           -8.69310744569499        1.02205202069289       -1.66939372477162
C           -8.67249656993497        0.13407466049789       -0.60233692051938
C           -9.85805060118829       -0.49216467078166       -0.15129342002099
C          -11.07272604915174       -0.19826168904654       -0.75590928870350
C           -9.47251819388576       -1.37412629874886        0.91662135551514
C          -10.17947352936181       -2.22619679451358        1.75419511711767
C           -9.48633918586902       -2.92973608136894        2.72081308157085
C           -8.10892989204269       -2.77938389878364        2.86705534608287
C           -7.38378643636692       -1.93691544271132        2.04535485677415
C           -8.07057511230511       -1.24690282415715        1.05549773438118
N           -7.60062323898375       -0.33323952569331        0.13248364558844
C           -6.26499618306272        0.06317904239829       -0.01871891301542
C           -5.26464399148696       -0.91373235037321       -0.13620993861105
C           -3.93536865423665       -0.56639953521241       -0.26094032932391
C           -3.61112142100524        0.78268195100751       -0.28074197914997
C           -4.61395648171811        1.77922841743224       -0.17475310775788
C           -5.94415751306033        1.41609976296231       -0.04279423374700
C           -3.93855955713040        3.04585207585060       -0.22427092173577
C           -4.37636556882970        4.36310141977493       -0.19002437889819
C           -3.44106436184962        5.37455721005428       -0.30271428743166
C           -2.08800228505485        5.08546223636399       -0.46849897579974
C           -1.62845897020798        3.78036121088800       -0.50139278574427
C           -2.55713211105540        2.76030804663856       -0.35617016626557
N           -2.37310535585230        1.38625176792637       -0.37369273366244
C           -1.15952979091044        0.72399980567912       -0.37885766214929
C           -0.10252205031118        1.14632981006503        0.40148885729084
N            1.04856936743675        0.48583568487759        0.49263338271601
C            1.15178632136865       -0.66726851399430       -0.24801706920068
N            2.35155228889430       -1.34809723868961       -0.20370186448943
C            2.52744773068888       -2.72388503446958       -0.26793638961552
C            1.58721318650295       -3.74372262428272       -0.27128526827820
C            2.04341374741965       -5.04965790348966       -0.32603546566205
C            3.40493259327110       -5.34275663199575       -0.36678060848798
C            4.34928555704668       -4.33497318353376       -0.32179179000131
C            3.91413034646543       -3.01759212470479       -0.26048792973184
C            4.59870197525474       -1.76005153908397       -0.16010447197971
C            5.93630184455790       -1.41129377862958       -0.07295690441394
C            6.26761499773360       -0.06512401793895        0.03769984361724
N            7.61096342673056        0.31673931551240        0.13811576042029
C            8.63540951027880       -0.09915131550889       -0.68984478677753
C            8.58985527864112       -0.91519457863737       -1.81218658001258
C            9.77368901888377       -1.15532383421212       -2.48461909471988
C           10.97639610360263       -0.59249473320461       -2.06321685380776
C           11.02396257438817        0.24093547981443       -0.96155018806955
C            9.84816361056779        0.49534924742493       -0.26929000956993
C            9.53045274339828        1.30321724155695        0.87719410675656
C           10.28987987844484        2.09625685080980        1.72639506746564
C            9.65905811377916        2.73080576225336        2.77987309755307
C            8.29283062410679        2.56915224406095        2.99923069406631
C            7.51607027345831        1.78456131872553        2.16718604541224
C            8.13909612605669        1.16588953665953        1.09166743710835
C            5.26756495006853        0.92031342102069        0.05591886463091
C            3.93204372852007        0.58603800145868       -0.02408986628589
C            3.59672721578425       -0.75701100976074       -0.12102461639971
C            0.10421026642087       -1.07093778486823       -1.05166998234184
N           -1.05074800971643       -0.41573349564666       -1.13525819790288
H          -12.02507879277372        0.94829471193745       -2.28453668360768
H           -9.95691619477439        1.99033607598824       -3.08415751483163
H           -7.78510871388824        1.47336298044150       -2.03957038644230
H          -11.98189270225387       -0.67138430962599       -0.41644950949329
H          -11.24936317366152       -2.33011513029642        1.65332504468300
H          -10.01736269441231       -3.59950740624722        3.38110240222996
H           -7.59651216453345       -3.32948542620472        3.64278738056481
H           -6.31974836958199       -1.81294080839794        2.17831110464336
H           -5.55061143565811       -1.95427318964305       -0.14201104706949
H           -3.16757151431586       -1.31694184840167       -0.35936421633638
H           -6.71500714957886        2.16313942864193        0.06466957679506
H           -5.42658489079658        4.58797076057596       -0.08428986225752
H           -3.76059537464390        6.40549782192728       -0.27715143058039
H           -1.38254744053069        5.89518095889761       -0.57969121889200
H           -0.58129364637031        3.56756884358748       -0.65435608692953
H           -0.20861430214958        2.00017442715693        1.05599194958655
H            0.53006234005631       -3.53584342518424       -0.21143684447492
H            1.32676976651101       -5.85713697354787       -0.33076506338929
H            3.72163096328492       -6.37372314195412       -0.41539095070263
H            5.40432193318047       -4.56209435324492       -0.32563803294933
H            6.70637946394858       -2.16665881576311       -0.06158935118832
H            7.65986980672015       -1.33980368231877       -2.15844204595919
H            9.76462750896981       -1.79010424745766       -3.35854465967005
H           11.88087602123589       -0.80556476941386       -2.61366451451326
H           11.95375973522792        0.68934218607950       -0.64544254061848
H           11.35203556261186        2.20751371738607        1.56841551899453
H           10.23161387911175        3.35420998614119        3.45074049026474
H            7.83013427098776        3.06365962183043        3.84074555294083
H            6.46197587103242        1.65065752357724        2.35672449315770
H            5.55909987302184        1.95769251501630        0.11263224706930
H            3.16272793192211        1.34145213132087       -0.00676406857991
H            0.21819550532408       -1.90597179076558       -1.72822823165442
