90
 energy: -145.423361845275 gnorm: 0.000053037676 xtb: 6.7.1 (edcfbbe)
C          -11.16884700277374       -0.11922939090095       -0.76715284461411
C          -10.15602355059117        0.74265562572874       -1.18420105710709
C           -8.84205928378381        0.55067361818447       -0.80196849008501
C           -8.55754433867345       -0.52873334024087        0.02318369592850
C           -9.57532951359054       -1.42110582852763        0.43380912132861
C          -10.88913860898434       -1.20694602397455        0.03600146574750
C           -8.93534153814516       -2.43036379541591        1.23056533245205
C           -9.39976171509960       -3.54845973631801        1.91202212994932
C           -8.49534771669185       -4.31630052092676        2.61840217922929
C           -7.14510999808996       -3.97348532469518        2.66268605539790
C           -6.65910623818228       -2.86681412115919        1.99294677203313
C           -7.55924325548442       -2.10438110130184        1.26119383220700
N           -7.34538163399954       -0.95466894813856        0.52815190032988
C           -6.10508053501068       -0.32693050959941        0.32626679758955
C           -5.02097790171456       -1.07661366678641       -0.14464754891598
C           -3.78286893113579       -0.50169268695978       -0.35455124756387
C           -3.64253765757916        0.85386337009625       -0.10153093329448
C           -4.73005168528067        1.62053261195043        0.36850056868976
C           -5.96352177810199        1.02832296971145        0.59155086885808
C           -4.25115785294768        2.96769295652064        0.52716325160644
C           -4.86954835852886        4.15045399607647        0.90916952564411
C           -4.12716194917679        5.31523003653875        0.90583372898349
C           -2.79455814015108        5.30830123570266        0.50420826917532
C           -2.15869714025419        4.13971507032822        0.12304848938342
C           -2.88644888466572        2.95932672587965        0.16252567720164
N           -2.51731311076857        1.66629776313238       -0.19486024787728
C           -1.24883643902663        1.24107378686668       -0.53727262230462
C           -0.09137117366421        1.77412974831931        0.04555979465583
N            1.11041573788453        1.40192357579156       -0.33930318406564
C            1.21345567185331        0.47284179403938       -1.29456048881667
N            2.48165483532513        0.12625209320398       -1.71802068679479
C            2.84167019379313       -0.28520767731666       -2.99738457858060
C            2.09599589226227       -0.32564569281751       -4.16648503729533
C            2.72496612600739       -0.74862210592122       -5.32435486254602
C            4.06783140479733       -1.11440203153167       -5.33230246026242
C            4.82686939542296       -1.03885553328356       -4.18075362165805
C            4.21551105526705       -0.61399585387059       -3.00899583323433
C            4.70882042384744       -0.37740173831613       -1.67871532650065
C            5.96035917897771       -0.52198010761770       -1.10009283883325
C            6.10905445010176       -0.20672042554228        0.24360745617165
N            7.36266976228079       -0.35025280094709        0.86109091617949
C            8.01910799357104        0.61680683352879        1.59530175917991
C            7.64402042293034        1.92466063990859        1.87077168388766
C            8.50664745519165        2.69882289105484        2.62304448977350
C            9.72041654563530        2.19478852977350        3.08712540251033
C           10.10949128703234        0.90214647515476        2.79726236599615
C            9.25880926303591        0.10349416124249        2.04319685467067
C            9.34344807205978       -1.24364193216894        1.55239339015208
C           10.29596596870505       -2.24788014861600        1.67247567347777
C           10.04839913645393       -3.46993976935389        1.07940268323001
C            8.86192203294950       -3.70255059276148        0.38592130324638
C            7.89999127678909       -2.71963452752668        0.25189927780840
C            8.15275380957632       -1.48159564549575        0.82679812998577
C            5.01780712751886        0.24849992382441        0.99241702537943
C            3.77013215877524        0.41256676852935        0.42314228068965
C            3.61951808828251        0.09894145896000       -0.91856936305846
C            0.05748104705870       -0.15356821061184       -1.77852822100291
N           -1.14482281901395        0.23658381240318       -1.41258412410587
H          -12.18440437223975        0.06602718171688       -1.08544131696042
H          -10.40339376733034        1.57765288275638       -1.82371085410450
H           -8.06238875941146        1.21519516847199       -1.14274828111255
H          -11.67209628470210       -1.88244246050388        0.34729639987072
H          -10.44836316385399       -3.80569374525186        1.89047104729223
H           -8.83560355244929       -5.19116540907140        3.15301501148720
H           -6.46380303476172       -4.58492216501778        3.23660261161180
H           -5.61406353380851       -2.60067811771594        2.04540524554640
H           -5.16635386545658       -2.12456618869149       -0.35838167798281
H           -2.95550386014397       -1.08579492113847       -0.72240256998882
H           -6.79350762659000        1.60198777653706        0.97318910217945
H           -5.91083904587381        4.15484923279766        1.19211300004327
H           -4.58603714782996        6.24678697567584        1.20070123707281
H           -2.24260705717663        6.23602052003828        0.48224306716829
H           -1.13414371538615        4.16498338432065       -0.21458567287990
H           -0.13057742753455        2.48084244175871        0.86206889939326
H            1.06239085257254       -0.01707293652457       -4.19257114944362
H            2.15916020057502       -0.78839762997042       -6.24308255298679
H            4.52103949385532       -1.44360424455402       -6.25509549339659
H            5.87540803698092       -1.29356905817593       -4.18748617061493
H            6.80350055579174       -0.86321280589983       -1.67988980571250
H            6.71311347005619        2.32877292554458        1.50242501998168
H            8.23588743835800        3.71899109526088        2.85390636500184
H           10.36640410046874        2.83099033708858        3.67443963124554
H           11.05657815378230        0.51684789428344        3.14482344044849
H           11.20862491628503       -2.07315769129113        2.22266644428355
H           10.77729193991599       -4.26321636185541        1.15956433092167
H            8.68964948200900       -4.67390875400696       -0.05472279011632
H            6.97727540651078       -2.91404016178445       -0.27404218052956
H            5.15960993401953        0.46616078451333        2.04002903750871
H            2.93850577006840        0.77342246312209        1.00552268156282
H            0.09820958786213       -1.00800147130310       -2.43878812592399
