  93
       -141.75932726
 C         -4.0878444251       -2.5444018845        1.1951621598
 C         -4.1197682469       -2.7997110453       -0.3270511214
 C         -5.5766209535       -2.9941269889       -0.7477027513
 C         -3.2660031944       -4.0180031313       -0.6037589231
 C         -3.7795265723       -5.2877334419       -0.8156789224
 C         -2.9491783531       -6.3853394188       -0.9636873485
 C         -1.5772498545       -6.2198032447       -0.9097122414
 C         -1.0428847737       -4.9600799878       -0.7304805604
 C         -1.8769207555       -3.8535896535       -0.5719991862
 N         -1.3249438655       -2.5747986487       -0.4604618834
 C          0.0180287087       -2.4882980594       -0.0522761693
 C          0.3470277231       -2.9585738143        1.2223813397
 C          1.6481838428       -2.9197496431        1.6656979052
 C          2.6685713490       -2.4171096890        0.8510576142
 C          4.0427904040       -2.4359056761        1.3889132736
 O          4.3578981484       -3.1284363899        2.3389798559
 C          5.0629021534       -1.5663933900        0.7260399293
 C          6.4191147638       -1.8873179052        0.8214440808
 C          7.3403146725       -1.0703912522        0.1873243407
 C          6.8851687623        0.0310920889       -0.5204445485
 C          5.5146112868        0.2842577342       -0.5349585026
 C          4.9266969809        1.4103637654       -1.3218909053
 O          5.5010851551        1.8967349891       -2.2724233872
 C          3.5705425842        1.8064312299       -0.8824266926
 C          3.2683908403        1.9569499693        0.4695675219
 C          1.9986376776        2.3250167465        0.8615210787
 C          0.9928403843        2.5057715244       -0.0862959477
 N         -0.3108768913        2.8688120457        0.3170135678
 C         -1.0449624043        2.0109668565        1.1308970020
 C         -0.5071820641        0.7806426106        1.5212741887
 C         -1.2087434594       -0.0758659261        2.3419502907
 C         -2.4785139265        0.2615809166        2.7707743817
 C         -3.0300164417        1.4568960695        2.3535319171
 C         -2.3398856859        2.3456150996        1.5406581803
 C         -3.0171138426        3.6372025004        1.1290786190
 C         -3.3262024451        4.4566832201        2.3969968069
 C         -4.3193777670        3.2967686071        0.3846396902
 C         -2.1292053961        4.4778423022        0.2345286660
 C         -2.5984295611        5.7009854910       -0.2269641909
 C         -1.8145799325        6.5536796442       -0.9800322879
 C         -0.5077326686        6.1955455867       -1.2560176326
 C         -0.0189858226        4.9846546141       -0.8136882419
 C         -0.8257610108        4.0947241095       -0.0968622808
 C          1.2932919828        2.3450672722       -1.4380002924
 C          2.5752937995        2.0226354789       -1.8323149605
 N          4.6342211874       -0.4947522522        0.0789052321
 C          2.3445212050       -1.9923319009       -0.4376038950
 C          1.0383332102       -2.0279072778       -0.8829773311
 C         -2.0651535025       -1.4846713562       -0.9194781752
 C         -1.4641312780       -0.2858176894       -1.2973988908
 C         -2.2166223356        0.7372067406       -1.8394801233
 C         -3.5761276186        0.5764129804       -2.0225107012
 C         -4.1897941996       -0.5803489238       -1.5744071175
 C         -3.4630491172       -1.6055762293       -0.9931199428
 H         -4.6662327574       -1.6546118176        1.4342339548
 H         -3.0687338707       -2.3879758267        1.5386061994
 H         -4.5093227345       -3.3962286299        1.7254111466
 H         -6.0123286000       -3.8344316111       -0.2135765858
 H         -5.6533285062       -3.1752043104       -1.8174870789
 H         -6.1642188388       -2.1167417352       -0.4910600479
 H         -4.8454650619       -5.4406663459       -0.8576541388
 H         -3.3749863713       -7.3652181943       -1.1171337005
 H         -0.9188017602       -7.0677840503       -1.0234986077
 H          0.0287685041       -4.8293855343       -0.7235274474
 H         -0.4336381927       -3.3673502299        1.8477647741
 H          1.9071222311       -3.2730696527        2.6528099983
 H          6.7161607063       -2.7630627738        1.3770052893
 H          8.3962779013       -1.2926435838        0.2368864076
 H          7.5543663199        0.6922357190       -1.0483627119
 H          4.0392401237        1.8216605329        1.2124386758
 H          1.7721690064        2.4753530769        1.9067272701
 H          0.4732883106        0.4835630757        1.1826567934
 H         -0.7531839782       -1.0062427954        2.6449417164
 H         -3.0356723805       -0.3974196693        3.4189252916
 H         -4.0284863709        1.7047660969        2.6799007629
 H         -3.8452192026        5.3778140114        2.1468415463
 H         -2.3995269725        4.7130679719        2.9073290637
 H         -3.9491562284        3.8897304973        3.0832317237
 H         -4.8107043517        4.1972054991        0.0268607837
 H         -5.0119253808        2.7695862477        1.0347467969
 H         -4.0974182885        2.6579978526       -0.4668316948
 H         -3.6056563197        6.0060508119        0.0132621669
 H         -2.2129133823        7.4945910050       -1.3274234034
 H          0.1382253338        6.8595986181       -1.8105066129
 H          1.0101843412        4.7336086977       -1.0163819223
 H          0.5183383629        2.4889583363       -2.1760184670
 H          2.8152580848        1.9099060268       -2.8789887575
 H          3.1178136072       -1.6595797651       -1.1102729511
 H          0.8150759953       -1.7477873181       -1.9012268643
 H         -0.4056175940       -0.1395720391       -1.1626565116
 H         -1.7366139518        1.6591763208       -2.1316248134
 H         -4.1639109621        1.3519306792       -2.4907472900
 H         -5.2590044037       -0.6652945877       -1.6765417147
