144
 energy: -230.376159629004 gnorm: 0.000058121011 xtb: 6.7.1 (edcfbbe)
O            0.01354445806695       -6.70953427999409        0.02058618018960
C            0.01214438514692       -5.43934130100293        0.01743728533343
C            1.25378666488829       -4.68890487342050       -0.07106464679060
C            2.38600427881179       -5.24160813074972       -0.69997971039761
C            3.56759154381807       -4.54369547513562       -0.77944181219828
C            3.68083691187299       -3.28360254469157       -0.18439387838400
N            4.88821361051581       -2.56507682011698       -0.21005214396260
C            6.06379778184663       -3.04223331664273        0.34068404632824
C            6.35165229061713       -4.32472651241877        0.78212513160028
C            7.58119153168639       -4.54746650210090        1.37330476184948
C            8.48336254999853       -3.50390570740707        1.55428457891627
C            8.18859329162990       -2.21846830856559        1.14070652837754
C            6.97971818123040       -1.97325772790254        0.49651910394301
C            6.31230202480658       -0.79774191329223        0.00240593919813
C            6.63329589745501        0.56162226062198       -0.10292549704446
C            5.63216973925383        1.53908700524269       -0.37848583475479
C            6.29807504958077        2.81168280012842       -0.38257495324780
C            5.91973205748364        4.12116905730011       -0.67589349588436
C            6.86959345474974        5.12220598202721       -0.63806348612811
C            8.20115342993681        4.84680793446262       -0.34106506415510
C            8.61538899103999        3.55309852913035       -0.08312632907023
C            7.66066170422088        2.54919884814223       -0.10001318546857
N            7.84115002007860        1.18907465690873        0.06951911735378
C            9.11644532214916        0.59196041683625        0.04241659756353
C           10.05588956447491        0.90763959683249        1.01872420851112
C           11.32059256553378        0.34868143699171        0.95997908831366
C           11.65163168788506       -0.52256064826014       -0.06511425635469
C           10.71483359317395       -0.83581399582592       -1.03694363121371
C            9.45053494934038       -0.27802662762511       -0.99082760156126
C            4.33476925674767        1.09395514154792       -0.68196631012235
C            4.06930120187655       -0.28500185241640       -0.87320665187459
C            2.77036686307928       -0.36976873969348       -1.47360631090537
C            2.03488430983758       -1.38961759060893       -2.07538667514943
C            0.78399861636920       -1.09964443611575       -2.57828394147763
C            0.23903076784761        0.18021337291844       -2.47355185131454
C            0.96627060001736        1.22080742487178       -1.93305195687255
C            2.25026022545473        0.94845084096033       -1.48210482359631
N            3.20253128032855        1.81811664865973       -0.99308119777973
C            2.90153832116311        3.12912474699972       -0.57994486393438
C            2.37504265929186        4.04907828520303       -1.48158738975667
C            2.04513230111351        5.32160583278178       -1.04921057482735
C            2.23861539548225        5.68225274447367        0.27430213773511
C            2.76413089391373        4.76614038646130        1.17129668973271
C            3.09208557919730        3.49045747845565        0.75089219198438
C            5.01735044370526       -1.21562113467947       -0.40681720141194
C            2.58410507299809       -2.75224127095205        0.50448157399505
C            1.39576887856011       -3.43261463108680        0.54937115202458
C           -1.23110780648195       -4.69121663804088        0.10135415777117
C           -1.37487032018530       -3.43766512633930       -0.52422744864983
C           -2.56535102652317       -2.76067440677314       -0.48596619959563
C           -3.66275764790906       -3.29266663420846        0.20132558311487
N           -4.87311278329845       -2.57890697469397        0.21870351819031
C           -6.04395152858614       -3.06404388835336       -0.33518453028813
C           -6.32354764979212       -4.34977574181347       -0.77250397925193
C           -7.54938043294460       -4.58105557377175       -1.36808645562465
C           -8.45573921077840       -3.54266267297036       -1.55757016086395
C           -8.16904593153246       -2.25404782504878       -1.14819015584230
C           -6.96434247910108       -2.00022458582403       -0.49950911744861
C           -6.30488430006202       -0.81950982530108       -0.00709020102219
C           -6.63340061398038        0.53848737658879        0.09201242420877
C           -5.63868066554586        1.52221714704373        0.36858951543832
C           -6.31128251682347        2.79130257869625        0.36496357393407
C           -5.94133783111108        4.10388504887377        0.65520757909466
C           -6.89627199220717        5.09974132153219        0.60905471217076
C           -8.22493919532516        4.81621585475787        0.30680061861172
C           -8.63109576626780        3.51935803374151        0.05189787981241
C           -7.67115841620401        2.52060841363976        0.07706343670524
N           -7.84370917482128        1.15895433572149       -0.08821001581049
C           -9.11601980662587        0.55538832648715       -0.06564914336392
C           -9.45110980847452       -0.31283195146867        0.96875614887351
C          -10.71283226749132       -0.87679093984592        1.01015830543078
C          -11.64614932773794       -0.57135425008994        0.03250969153289
C          -11.31419709154542        0.29824791188238       -0.99368677908349
C          -10.05194669337374        0.86316986430724       -1.04783907739128
C           -4.34023953563681        1.08492391046982        0.67895651848097
C           -4.06812681640423       -0.29202772676018        0.87580597514467
C           -2.77070667985645       -0.36793489794538        1.48070205490866
C           -2.03127935715566       -1.38193384684063        2.08755743760677
C           -0.78326613070124       -1.08369875823582        2.59272697905120
C           -0.24518886662254        0.19892627826708        2.48620075606224
C           -0.97665533577467        1.23395524171145        1.94077147044091
C           -2.25771594272718        0.95308559443115        1.48668478396148
N           -3.21300671144256        1.81601046182374        0.99175728041290
C           -2.91781322252819        3.12813377141406        0.57788210338648
C           -2.40171396936340        4.05257250122578        1.48096171436465
C           -2.07724482570032        5.32648426067380        1.04854351730245
C           -2.26580664682452        5.68398029041891       -0.27653344394879
C           -2.78065967432292        4.76330247477356       -1.17504198253877
C           -3.10318508501406        3.48624629769988       -0.75453973143861
C           -5.00955447937584       -1.22931434379831        0.40928829306982
C           -3.54736072699655       -4.54966262038217        0.80253670780495
C           -2.36348835517651       -5.24436616491560        0.72970808294008
H            2.29024433101070       -6.21975477862062       -1.15001983099822
H            4.40547736446567       -4.95541505692651       -1.32396719331453
H            5.62865347442522       -5.12027030310080        0.69053357267591
H            7.83217087826785       -5.53898389897237        1.71965725060413
H            9.42587958962702       -3.69717601993696        2.04480328956095
H            8.88635241901719       -1.42439892528387        1.34019026930136
H            4.90686179897903        4.36063770357881       -0.94511053570141
H            6.57479682324596        6.13763044404005       -0.85775500166869
H            8.92340236530331        5.64935957936783       -0.32899423216658
H            9.65412913396168        3.33167923649033        0.10687935639518
H            9.78415297514491        1.57088164599064        1.82665457582324
H           12.04716709551850        0.59026692582261        1.72154875052173
H           12.63861794419765       -0.95799219537403       -0.10600532116456
H           10.97029337967395       -1.51360564983012       -1.83755231615568
H            8.71572890819850       -0.51321340353127       -1.74612608332188
H            2.43759410420248       -2.38482532930499       -2.16988014727863
H            0.21401180775692       -1.87849790432630       -3.06392026668380
H           -0.75751794459485        0.36400972130984       -2.84653241346528
H            0.55131228552606        2.21485074911806       -1.87338537667042
H            2.25259804303622        3.77076924138786       -2.51755802384540
H            1.64202402424563        6.03526462564290       -1.75208370167193
H            1.98195638539438        6.67690757941496        0.60585435013027
H            2.91618723585610        5.04354435505935        2.20361299367128
H            3.49973927502557        2.76862235415101        1.44287112002762
H            2.68746829307559       -1.80493626821026        1.01214627445784
H            0.56328438140909       -3.01476986795493        1.09429866451357
H           -0.54196343586213       -3.01934802511748       -1.06809640000983
H           -2.66971685648014       -1.81572769032161       -0.99778646369038
H           -5.59701659693107       -5.14132356722947       -0.67444921774994
H           -7.79400985472399       -5.57529666745129       -1.71116592898732
H           -9.39509519406658       -3.74258033581097       -2.05148124092494
H           -8.86968340399180       -1.46427282756326       -1.35446889228122
H           -4.93113801158900        4.34982280111212        0.92853193546399
H           -6.60786835970274        6.11754224017181        0.82623152264169
H           -8.95131570599458        5.61490937480300        0.28816499247991
H           -9.66774536745753        3.29168512192172       -0.14207029069726
H           -8.71909203330921       -0.54179691492665        1.72865100484596
H          -10.96905419371125       -1.55327246043200        1.81162911124762
H          -12.63115235476718       -1.01157213202536        0.06978135904538
H          -12.03805132865435        0.53393580344841       -1.75968434670485
H           -9.77930187320962        1.52503314529203       -1.85659224661129
H           -2.42872811146416       -2.37904174875225        2.18401677490758
H           -0.21008063096942       -1.85822651626634        3.08152693649576
H            0.74926242952898        0.38927519821644        2.86148780918682
H           -0.56713854366291        2.23018461104394        1.87964646235860
H           -2.28302595592928        3.77636127955751        2.51792876002679
H           -1.68228613321175        6.04360850448973        1.75252778813370
H           -2.01364020113263        6.67978010649101       -0.60811576217845
H           -2.92867938039278        5.03827319704331       -2.20859822620555
H           -3.50264656615492        2.76090938504526       -1.44763130003056
H           -4.38568091927793       -4.96147973018437        1.34633595430949
H           -2.26625233772211       -6.22032566708469        1.18416338703684
