144
 energy: -230.448191410090 gnorm: 0.000080518384 xtb: 6.7.1 (edcfbbe)
O           -0.01319508466524        1.78282347540649        3.09290104180802
C           -0.04573721967156        1.04916777984209        2.11502170541395
C            1.19126354860227        0.68741274026558        1.38166587645663
C            1.22810761481317        0.61984193787874       -0.01073832927625
C            2.39609674939301        0.27811145308073       -0.66212946095736
C            3.54414203375556       -0.02493943308562        0.06932094517968
N            4.70245456454177       -0.45790321432083       -0.58523632659720
C            4.73476259450877       -1.62015361787603       -1.33853895075311
C            3.67179225368695       -2.37667081786998       -1.80738317627565
C            3.95373380372660       -3.54681908484734       -2.48507102617942
C            5.26795921133584       -3.96795174474269       -2.65826950145381
C            6.32744235606747       -3.23072949185014       -2.16815017092902
C            6.07812226918423       -2.02508686257604       -1.51796412979640
C            6.89210545257312       -1.04708870331915       -0.84167683153628
C            8.26320090229061       -0.91197006547929       -0.56392959800588
C            8.72270097574179        0.03520442376658        0.38315779639803
C           10.10283386766200       -0.27849807119436        0.63728191616433
C           11.05138282312079        0.14655240973407        1.56367626999772
C           12.32387400240631       -0.38602381593778        1.51382197446017
C           12.67322227344472       -1.33275279578506        0.55478398922443
C           11.73641848124777       -1.81709730385591       -0.33719694508484
C           10.44550371895421       -1.31590930727648       -0.26157437982365
N            9.32674152209463       -1.68384711285221       -0.98428786861417
C            9.39925034181728       -2.44682223725164       -2.16307025279375
C            9.92371496194248       -3.73571093631677       -2.13683684216676
C           10.03085055297410       -4.45830192188402       -3.31219863501162
C            9.61497781906693       -3.90587306391072       -4.51275031228281
C            9.08870058470764       -2.62427017947748       -4.53819797498432
C            8.98526319961570       -1.89111222626264       -3.37061115323366
C            7.83877578465794        1.04584669064894        0.79242459650232
C            6.46874285257002        1.00587681966792        0.44042426220636
C            5.88005193212030        2.22106636731915        0.93542347111233
C            4.63957970040396        2.84024412455394        0.80169870438527
C            4.43572765082454        4.07331805260819        1.38747794263156
C            5.45406521088361        4.72279997547558        2.07987480898222
C            6.71117523711296        4.16036999845068        2.18046527482547
C            6.91348278513879        2.91301391969377        1.60904799311756
N            8.08597179524887        2.18745899288734        1.52146126505607
C            9.33948540034194        2.76530896270758        1.80111724433564
C           10.25107953776314        2.98187367355029        0.77272145009980
C           11.46533623677133        3.58426765767461        1.04524437058187
C           11.77298116414585        3.98129452182353        2.33643870529196
C           10.86213015952022        3.77336874788925        3.35930157001170
C            9.64610850318402        3.16705724870502        3.09695617132908
C            6.00108445706956       -0.10843063404481       -0.27305321182462
C            3.51699039337253        0.06333970815250        1.46127611319912
C            2.35678424708880        0.43646238422888        2.10509537096736
C           -1.31258963282652        0.45267456607417        1.63648482793091
C           -1.34066524301212       -0.74436164168986        0.91893037447042
C           -2.54384656585739       -1.30697679235797        0.54556843689279
C           -3.74646023289895       -0.68786725606262        0.88687883389516
N           -4.96370739493084       -1.29280532544555        0.56152527118203
C           -5.31144384723073       -2.55781139050475        1.00682045733721
C           -4.50716360913393       -3.53411860545613        1.57441448028184
C           -5.08292823781167       -4.75055171349523        1.88674433111810
C           -6.42687385022717       -4.99066686095154        1.61992414872827
C           -7.24050489073231       -4.00398002736459        1.09977631519222
C           -6.70163833605152       -2.74837068840706        0.83225450469152
C           -7.22124211946289       -1.50811804371420        0.31507181815045
C           -8.49918409574730       -1.01916607920365       -0.00038167653778
C           -8.67016383034202        0.22543944001380       -0.65406962381327
C          -10.07062924768856        0.32976499871943       -0.97142282576237
C          -10.85041685826786        1.20637005075915       -1.72174546553327
C          -12.21138479923475        0.99262755876300       -1.80881990745886
C          -12.81805111200386       -0.08063298688886       -1.16249541659093
C          -12.06342231430743       -0.99982797309275       -0.46084809665852
C          -10.69111782332895       -0.80743454621663       -0.40324751815016
N           -9.73104780862190       -1.61162413970953        0.17841347712409
C          -10.05691168089231       -2.63662273687027        1.08535519920437
C           -9.64659928580659       -2.54436945160820        2.41202581548475
C           -9.99848852040991       -3.53282598183666        3.31228335840724
C          -10.76830217441069       -4.60885174882148        2.90100857143619
C          -11.18194039319304       -4.69872097689701        1.58185739393616
C          -10.82848822582523       -3.71812446691250        0.67160046896842
C           -7.54091338376663        1.03380518373931       -0.85714101490630
C           -6.23782097274148        0.56781818218369       -0.55595665557822
C           -5.32434083195583        1.56254289710873       -1.05428859994242
C           -3.94368092695606        1.63897026725286       -1.22095649688696
C           -3.39191206964252        2.78884835854059       -1.74953103320063
C           -4.18748105258887        3.87039726656006       -2.11660023923791
C           -5.56325106923218        3.79937234890671       -2.02239824137839
C           -6.12232128960525        2.62972452307580       -1.52988520005137
N           -7.45623256421662        2.29676839368561       -1.40401404519821
C           -8.48530028507382        3.25276410018383       -1.48642357773286
C           -9.26864231460101        3.52408199507285       -0.36847312707270
C          -10.25874234501361        4.48645349536755       -0.43805779369934
C          -10.46593011167132        5.19024587845266       -1.61337374528229
C           -9.68205920818868        4.92577461773335       -2.72460535092678
C           -8.69324640504728        3.95930743110903       -2.66692853047948
C           -6.10666275526171       -0.66503814081311        0.10115566235714
C           -3.72442443307249        0.50904280174626        1.60495068055038
C           -2.52061616350371        1.06532693676640        1.97734075704100
H            0.34631152715158        0.86363504282327       -0.58369056487387
H            2.43204691101408        0.26076462876918       -1.74101790602994
H            2.65048101242562       -2.07582716299049       -1.63349245251873
H            3.14317582816001       -4.15003734781066       -2.86676815308330
H            5.46440452354639       -4.89806916892466       -3.17130685787433
H            7.32872552930655       -3.60619563491405       -2.28063711311618
H           10.80078446677510        0.86276596622183        2.32770467109642
H           13.06300874893274       -0.05935609139243        2.23076267389295
H           13.68455910828100       -1.71092242058541        0.52163625281024
H           12.00371236833642       -2.56706999620639       -1.06579187191666
H           10.22158581457289       -4.17147470174706       -1.19470619422539
H           10.43431027674435       -5.45999754420644       -3.28759363300319
H            9.69817675759406       -4.47462832400476       -5.42668049989494
H            8.76309696226947       -2.19091216225857       -5.47214742572208
H            8.57819692991731       -0.89088572170661       -3.38144152024221
H            3.84689820024191        2.38700258352259        0.23113566392198
H            3.47002838890637        4.54911742175913        1.29546581158562
H            5.26542154330388        5.68993860259929        2.52240925491994
H            7.51595748724630        4.68482702245697        2.67298518218793
H           10.00199811945136        2.67329085592123       -0.23158696530748
H           12.17217821746296        3.74687174726438        0.24528372590753
H           12.72159314357228        4.45265344366296        2.54562659540496
H           11.09981729283458        4.07916270041504        4.36766871954837
H            8.93696689827260        2.98845631903031        3.89213806389968
H            4.40817403759533       -0.16238182542018        2.02626528408172
H            2.32672724487345        0.51150102686545        3.18201882058847
H           -0.41859001874221       -1.24640520794079        0.66895878704278
H           -2.56044929350506       -2.21972122072549       -0.03055280558864
H           -3.46130384400228       -3.35639465928515        1.77063018486342
H           -4.47597019817585       -5.52940237556879        2.32444989442169
H           -6.84460344808592       -5.96461465904212        1.82892612419711
H           -8.27278897259252       -4.22328530153203        0.89194944651342
H          -10.40931504225666        2.03395389020961       -2.24888147446125
H          -12.81699157815179        1.67345463544894       -2.38922151457413
H          -13.88877067194075       -0.20789264335640       -1.22722137090420
H          -12.52942414373222       -1.84376098005864        0.02457798286692
H           -9.04955589222396       -1.70096143554395        2.72528235602685
H           -9.67461038568365       -3.45950944129315        4.33980696490106
H          -11.04399635292727       -5.37794143632442        3.60680874098599
H          -11.77698745117962       -5.53943872517570        1.25661827497267
H          -11.12795442226439       -3.79447049889584       -0.36332590831437
H           -3.30503529446658        0.81022585315428       -0.96772107851910
H           -2.32144161980589        2.85378740910061       -1.87926353521729
H           -3.72483805958246        4.76768377547250       -2.50078865507598
H           -6.18299476930721        4.62818912408421       -2.32848626783987
H           -9.09964225758411        2.97272930538627        0.54447101252108
H          -10.86754980633157        4.69042071623119        0.43016651857032
H          -11.23865944830256        5.94255518901510       -1.66438275872730
H           -9.84486182318480        5.46849872258559       -3.64418398474107
H           -8.09512054955666        3.73198036000266       -3.53708672539776
H           -4.65466676789967        0.98662021544565        1.87195781748915
H           -2.49065813789385        1.98409698842264        2.54432965789082
