144
 energy: -230.374555921398 gnorm: 0.000101004967 xtb: 6.7.1 (edcfbbe)
O           -0.17490717680627       -6.77086320359083        0.03476244592924
C           -0.16117954464337       -5.50264655111600        0.06269501194307
C            1.08728186740680       -4.76419222692029       -0.07049414499936
C            2.15645044396774       -5.28943507549161       -0.81828584826108
C            3.33785168811290       -4.59896156220340       -0.95043566541876
C            3.51913152428285       -3.38222332462819       -0.28516263445052
N            4.72799706860746       -2.67508916674674       -0.37325695371023
C            5.95585798859910       -3.21088871814034       -0.03132192501121
C            6.27156136266067       -4.52937116456736        0.25964288759089
C            7.56929455400613       -4.82040907504211        0.63631915683419
C            8.51859959351623       -3.81034307623821        0.75245792367276
C            8.19859789284297       -2.49005736577997        0.49842445894415
C            6.90973053031063       -2.16939244452227        0.08255953789930
C            6.20408454436335       -0.94480939536619       -0.19349264797472
C            6.51052282997501        0.42004188052992       -0.10933203483658
C            5.47751757154037        1.40195315296413       -0.11785129060280
C            6.08783814018476        2.63504566650991        0.28698446223365
C            5.61155655342034        3.89697459696601        0.63960438279972
C            6.51602713568815        4.88408958646624        0.97531320770873
C            7.88725502574028        4.64269541306862        0.96235957465685
C            8.38471632549641        3.38429542657287        0.67647261162658
C            7.47759847983303        2.37850555985334        0.38404815273308
N            7.71379497374460        1.03905054754157        0.13603975639714
C            8.99567021143361        0.52266904016435       -0.12681033274916
C           10.01218642660442        0.64566523717607        0.81567287793568
C           11.27915017650796        0.17117147011452        0.52410243421389
C           11.53706605234024       -0.42795419512500       -0.69827660098461
C           10.52308035376070       -0.55390644531781       -1.63444021090210
C            9.25583935176856       -0.07608929801919       -1.35643178291259
C            4.20214482239532        1.01609843859701       -0.56214677887088
C            3.89331467782199       -0.34554915136365       -0.80253627843980
C            2.57110395037093       -0.37560257969350       -1.35767606672769
C            1.77880029014487       -1.35400651365867       -1.95706927967026
C            0.54474514589278       -0.99818263515590       -2.45980398648081
C            0.08250168077118        0.31589812787848       -2.39191399661784
C            0.86718195108261        1.31661121854576       -1.85694726957686
C            2.11228796140390        0.96428263015558       -1.35538421710248
N            3.10581937170360        1.78826565026599       -0.86940639365572
C            3.06175176168585        3.18615824242254       -1.04829645179859
C            3.95702187005781        3.80357330293960       -1.91573488893403
C            3.88532056347103        5.16955606204422       -2.11810792577845
C            2.92025337001071        5.92112027806809       -1.46707790496198
C            2.02278297149258        5.30409592110011       -0.61098985023785
C            2.08776775441648        3.93787153122641       -0.40018485224552
C            4.85998174018044       -1.31563186146562       -0.47522403770238
C            2.48826503442086       -2.88310038377558        0.52026657020725
C            1.29435902783470       -3.55061671202023        0.61209894451056
C           -1.38552180842710       -4.73839375666416        0.21855176426648
C           -1.52935271309618       -3.46074363370690       -0.35803249472621
C           -2.70758208824107       -2.77027832149830       -0.25947518057816
C           -3.79309555804018       -3.30890463813424        0.44506707595229
N           -4.97851152228178       -2.56604315438374        0.53558346254665
C           -6.21916579207957       -3.01693026540337        0.12157390189741
C           -6.61629397215089       -4.30611363483128       -0.19748656502239
C           -7.94525419154487       -4.51633721687561       -0.51763936704900
C           -8.85668493402894       -3.46563953665733       -0.49903428302330
C           -8.45410523161364       -2.17032805996958       -0.23128461955112
C           -7.11084080390403       -1.91923243017242        0.02937363283311
C           -6.33359866820571       -0.74259762316012        0.32141559155091
C           -6.54661736746150        0.63854998192874        0.25519368064625
C           -5.56091399845881        1.56617975741603        0.70832111079202
C           -6.16478022736709        2.86644513683030        0.63367008514966
C           -5.80151893249921        4.14840584303894        1.04496017550889
C           -6.65532845049116        5.20325247873080        0.79202158456129
C           -7.86787320379923        5.01201306595014        0.13559162127942
C           -8.27978042738582        3.74517960041960       -0.23636593520949
C           -7.44043957434568        2.68047471662558        0.04746081486394
N           -7.65066208272257        1.33270165294091       -0.17534899994233
C           -8.68779629964110        0.85728443470264       -1.00167134784522
C          -10.01587287276976        1.08639762279969       -0.65743745713822
C          -11.02679411112729        0.65650922185823       -1.49926639972533
C          -10.71994063888404       -0.00030573285207       -2.67994372952041
C           -9.39670237995310       -0.22868192409511       -3.02126092121078
C           -8.37926152717263        0.20194963194759       -2.18978361782121
C           -4.31263375601985        1.06961785615889        1.11670586437635
C           -4.07701764945392       -0.32367476846597        1.21881716777467
C           -2.80462555567069       -0.47598199192872        1.86347484987296
C           -2.09910562621683       -1.55021257983749        2.40439963578982
C           -0.86557805078053       -1.31859150145451        2.97554167739589
C           -0.31030692558617       -0.03945563285803        3.01104852089373
C           -1.01098944650657        1.05040860041864        2.53732056907698
C           -2.27435073733843        0.83027337912860        2.00659101641640
N           -3.19272763508220        1.75021335024869        1.54768098912298
C           -2.84703950644907        3.08316580482135        1.25243694313343
C           -2.39166733111602        3.93012665373418        2.25800050443684
C           -2.01724401226785        5.22594309100481        1.94674385150949
C           -2.09503753397400        5.68057230889983        0.64030963086349
C           -2.54501135216749        4.83526054623562       -0.36122951205116
C           -2.91694843523498        3.53786102506587       -0.06111250273629
C           -5.04890636059703       -1.20848255308099        0.71596407107478
C           -3.67419584503417       -4.58557731015015        1.00576246901692
C           -2.50517685464558       -5.29423472133725        0.86818066159032
H            2.00980209680092       -6.23500810947551       -1.32112349523030
H            4.11916280871691       -4.97961989624726       -1.59255937725038
H            5.52244222702106       -5.30428639972792        0.21580001356787
H            7.84118054111435       -5.84100909012834        0.86096896256712
H            9.52197480045258       -4.05888609506771        1.06507125262255
H            8.94545091615664       -1.72995386374646        0.64023617213159
H            4.55551114128833        4.10143793630549        0.67603222441647
H            6.15281552993342        5.86302260991614        1.25053881548083
H            8.57227096062848        5.44277768858103        1.20029117024183
H            9.44659420996058        3.19416819761063        0.68795309829039
H            9.79928006512231        1.08714600890862        1.77771616732653
H           12.06535279305984        0.26309994621249        1.25873148623594
H           12.52621568573942       -0.79939725036064       -0.91958301319141
H           10.72016059842748       -1.02147512359432       -2.58748367020996
H            8.46039083133848       -0.16832445048100       -2.08083588417451
H            2.12521757898306       -2.36946055564229       -2.05492185997045
H           -0.07083833170938       -1.75036393026190       -2.93181984736920
H           -0.89084476378492        0.55687903754582       -2.79281294338962
H            0.53528337241533        2.34338623492457       -1.85302751826518
H            4.70242011429964        3.20904673002979       -2.42225759456108
H            4.58324473382800        5.64690751764522       -2.78937353701999
H            2.86722526908055        6.98737297586290       -1.62754713893168
H            1.27148201182452        5.88690971628306       -0.10028613818990
H            1.39872310818588        3.44998653996465        0.27284802334410
H            2.64572353046811       -1.96991796935260        1.07447780399065
H            0.50906262950900       -3.15656490471647        1.23929392865142
H           -0.70698708948224       -3.03505648624620       -0.91239304564016
H           -2.81327155656997       -1.80626088835909       -0.73442763308660
H           -5.91208636562078       -5.12306062979497       -0.19805993636400
H           -8.28042541301394       -5.51253667941042       -0.76497387000644
H           -9.89828774238029       -3.66291365916922       -0.70463828578464
H           -9.18446994453678       -1.38070620206642       -0.20860873248133
H           -4.87924275534475        4.32390402102995        1.56954456959599
H           -6.37497867482117        6.19701564228732        1.10821828617916
H           -8.50432068493176        5.85971359285830       -0.06988226794484
H           -9.22757823581389        3.59268268272675       -0.72895591721995
H          -10.24854627661667        1.58046299956841        0.27429321753825
H          -12.05751495726500        0.83041700980843       -1.22805259314743
H          -11.51203598387869       -0.33542434804566       -3.33244609962869
H           -9.15430854939221       -0.74067687546689       -3.94040878609550
H           -7.34564776592156        0.02975546557603       -2.45015980562907
H           -2.50916066314891       -2.54624143129914        2.39941360965422
H           -0.31714942838601       -2.14452334244422        3.40518392599561
H            0.67137446111236        0.10125529421185        3.43857100007478
H           -0.59472078186885        2.04394557838232        2.59449692539243
H           -2.35687928463356        3.57733972512001        3.27804009120696
H           -1.67103274464843        5.88327695469494        2.73060706703363
H           -1.80816612586881        6.69398408245174        0.40308129871884
H           -2.60320261138453        5.18540102643358       -1.38088288010940
H           -3.26636656771730        2.87125838999705       -0.83522317328633
H           -4.49330590759279       -4.99832056256754        1.57688026703353
H           -2.40609792246757       -6.28433603983058        1.29056347534234
