  32
  -48.9678832100000       0.587884155040318      !
 C          2.8598475466        2.4058496356        0.0666669963
 C          3.5429668112        1.2225086781        0.0308131934
 C          2.8439840574        0.0000656909       -0.0017917434
 C          3.5431167984       -1.2222414321       -0.0340544833
 C          2.8601392551       -2.4058611569       -0.0639163320
 C          1.4657482932       -2.4126701923       -0.0514548471
 C          0.7291883113       -1.2409067081       -0.0139157697
 C         -0.7291615299       -1.2409168411        0.0141849686
 C         -1.4657618668       -2.4126425196        0.0514631820
 C         -2.8601768732       -2.4058402400        0.0634650461
 C         -3.5431748034       -1.2222423624        0.0339296572
 C         -2.8439713997        0.0000956466        0.0018637099
 C         -3.5429340599        1.2224619606       -0.0309605265
 C         -2.8598209896        2.4058809828       -0.0670182865
 C         -1.4654053919        2.4125150452       -0.0570994399
 C         -0.7291441651        1.2407312565       -0.0140308931
 C          0.7291633320        1.2407226832        0.0148306357
 C          1.4653902630        2.4125163004        0.0577400923
 C          1.4225829141       -0.0000514606       -0.0010281026
 C         -1.4225886194       -0.0000361926        0.0011857543
 H          3.3923259531        3.3454228675        0.0977247608
 H          4.6232045471        1.2045138227        0.0296775787
 H          4.6233732025       -1.2041357038       -0.0363047568
 H          3.3927351431       -3.3453631569       -0.0944565062
 H          0.9714688750       -3.3703553705       -0.0740782559
 H         -0.9715753631       -3.3703991369        0.0739638115
 H         -3.3926062937       -3.3454405123        0.0938343638
 H         -4.6234309614       -1.2039327119        0.0364306986
 H         -4.6232113113        1.2049111154       -0.0306061746
 H         -3.3921878060        3.3454183833       -0.1005643938
 H         -0.9707949837        3.3698762615       -0.0867845182
 H          0.9708433782        3.3702137142        0.0807628695
  32
  -48.9675475200000       0.412115844959682      !
 C          2.8477499636        2.3914894464        0.2847056329
 C          3.5353750291        1.2173548414        0.1473031917
 C          2.8415888759        0.0000376270       -0.0002604247
 C          3.5354583631       -1.2173305952       -0.1471815022
 C          2.8478439021       -2.3915663726       -0.2839670301
 C          1.4538159305       -2.4024943919       -0.2275226320
 C          0.7263402541       -1.2374353304       -0.0595568353
 C         -0.7263535517       -1.2374420230        0.0591545948
 C         -1.4538083996       -2.4024872903        0.2271326236
 C         -2.8477968892       -2.3915610316        0.2839402112
 C         -3.5354263024       -1.2172832953        0.1476162861
 C         -2.8415874334        0.0000889457        0.0004973985
 C         -3.5353906275        1.2174067122       -0.1468675013
 C         -2.8477774042        2.3915193278       -0.2844641990
 C         -1.4537725630        2.4024247591       -0.2277544520
 C         -0.7263454849        1.2374300895       -0.0593979775
 C          0.7263410963        1.2374203949        0.0594414478
 C          1.4537587785        2.4024096255        0.2278519387
 C          1.4213802191       -0.0000044664       -0.0001188919
 C         -1.4213837416        0.0000097383       -0.0001292861
 H          3.3779566111        3.3229856284        0.4219883463
 H          4.6157190337        1.2032225956        0.1560358691
 H          4.6157625378       -1.2029758340       -0.1575729307
 H          3.3779720584       -3.3227373997       -0.4223914085
 H          0.9497444273       -3.3512622836       -0.3231618176
 H         -0.9497811887       -3.3513745208        0.3217982867
 H         -3.3779719102       -3.3230831950        0.4202796319
 H         -4.6157984500       -1.2031712356        0.1561881078
 H         -4.6156928806        1.2031234499       -0.1568010689
 H         -3.3780532720        3.3231356476       -0.4206059696
 H         -0.9496476953        3.3510777880       -0.3237239480
 H          0.9496713922        3.3512177080        0.3229312308
