  108
       -177.96941882
 C         -3.2377114257        4.9112793393        0.6622929647
 C         -4.4220173000        4.3213080365        0.2507545030
 C         -4.5812536839        2.9509236517        0.3340895808
 C         -3.5425818394        2.1577325669        0.8098321532
 C         -3.6870442952        0.7012651669        0.8606488209
 N         -2.6080046651       -0.0220654503        0.6946589492
 C         -2.6185763545       -1.3835622271        0.6673556422
 C         -1.4258049306       -2.0281398207        0.2284588877
 C         -1.0637850308       -3.3414201692        0.5892371848
 C          0.1871063198       -3.8343355064        0.3179457984
 C          1.1356856269       -3.0370200410       -0.3365561173
 N          2.4405154457       -3.4965300052       -0.5650710746
 C          2.7623328152       -4.5810437114       -1.3602100330
 C          1.9365374664       -5.5632546322       -1.8834553694
 C          2.5202485330       -6.5476328550       -2.6601558565
 C          3.8879900650       -6.5497504758       -2.9208779640
 C          4.7105268427       -5.5570583370       -2.4225151783
 C          4.1478974614       -4.5603205997       -1.6374511568
 C          4.6756041714       -3.3922046824       -0.9900429020
 C          5.9531607880       -2.8382485739       -0.9622567855
 C          6.1688828203       -1.6577261427       -0.2845698386
 C          5.1078896711       -1.0813674341        0.4147140254
 C          3.8160701446       -1.6567589318        0.4817910596
 C          3.0716198598       -0.8773314819        1.4325029283
 C          1.8183242798       -0.9923701382        2.0315171638
 C          1.4116126007       -0.0214237079        2.9242571524
 C          2.2283915012        1.0637784204        3.2359506078
 C          3.4984075992        1.1719028365        2.7064808631
 C          3.9268045521        0.1800136397        1.8346084502
 N          5.1451812708        0.0445784091        1.2103956818
 C          6.2562893224        0.8828738929        1.3882980062
 C          6.9079573824        1.4202259047        0.2823090162
 C          8.0065401427        2.2405797454        0.4608701834
 C          8.4558926105        2.5381319891        1.7368768510
 C          7.8048123311        2.0077714049        2.8384126462
 C          6.7111931857        1.1787284743        2.6696822156
 C          3.5877542614       -2.7828050617       -0.3169804207
 C          0.7686931935       -1.7741107624       -0.8031257526
 C         -0.4933580997       -1.2796710692       -0.5574996875
 N         -0.9019757254       -0.0649922267       -1.1219861660
 C         -2.0453877546        0.0836347568       -1.8876399916
 C         -2.9460562773       -0.8773700556       -2.3236365913
 C         -4.0442968345       -0.4460363439       -3.0452840610
 C         -4.2368873050        0.9004367872       -3.3431201628
 C         -3.3221914516        1.8582466950       -2.9437097565
 C         -2.2165639741        1.4457171378       -2.2175362820
 C         -1.0993852510        2.1351468190       -1.6406952895
 C         -0.7026022492        3.4563632352       -1.5419752407
 O         -1.3303136065        4.5492108536       -2.0428471915
 C         -0.5974500170        5.6243633589       -1.6391238779
 C         -0.8748503112        6.9530209120       -1.8990954922
 C         -0.0010194430        7.8959234661       -1.3850988953
 C          1.1133740356        7.5230718207       -0.6375899317
 C          1.3909099006        6.1952758870       -0.3794862315
 C          0.5271842823        5.2305215251       -0.8841211807
 C          0.4594771577        3.7977361060       -0.8187057413
 C          1.2343705843        2.8159656198       -0.1971195278
 C          0.8544732886        1.4948924987       -0.2782565298
 C         -0.3034555755        1.1640739010       -0.9846840508
 C         -3.8502718783       -1.9978328028        0.9751587252
 S         -4.2539226281       -3.6880601694        1.0880203980
 C         -5.9390229781       -3.3006368439        1.3768697449
 C         -6.9634542959       -4.2031151252        1.5824834406
 C         -8.2374115239       -3.7098237726        1.8080020521
 C         -8.4773989342       -2.3357236472        1.8253000569
 C         -7.4577789826       -1.4342646111        1.6199564908
 C         -6.1621278604       -1.9093846103        1.3950550425
 C         -4.9701933004       -1.1708712415        1.1537072073
 N         -4.8822603667        0.1735171415        1.0819282919
 C         -2.3523111796        2.7531834645        1.2176275889
 C         -2.2082091110        4.1258294476        1.1549819040
 H         -3.1146584557        5.9829647368        0.5994364728
 H         -5.2240878210        4.9341956400       -0.1338426236
 H         -5.4991158122        2.4764087919        0.0217147773
 H         -1.7646227585       -3.9466578177        1.1409768809
 H          0.4678512835       -4.8217575329        0.6516314404
 H          0.8735829214       -5.5579745724       -1.6972899939
 H          1.9016436785       -7.3294238948       -3.0750438424
 H          4.3076418994       -7.3370448016       -3.5291148931
 H          5.7683672002       -5.5540323034       -2.6379739654
 H          6.7637058596       -3.3275472926       -1.4796844323
 H          7.1463834353       -1.2015833134       -0.2634778019
 H          1.1724943367       -1.8260656105        1.8159563791
 H          0.4376212814       -0.1004438531        3.3830299059
 H          1.8690414524        1.8211632378        3.9162475019
 H          4.1417175255        1.9999542022        2.9637548548
 H          6.5420008757        1.1990856438       -0.7094186271
 H          8.5093010084        2.6545692152       -0.4002593000
 H          9.3118465214        3.1814313717        1.8725198222
 H          8.1550995835        2.2332366668        3.8345228872
 H          6.2131250680        0.7449739929        3.5240020345
 H          1.4694471296       -1.1970122997       -1.3887510456
 H         -2.8014492271       -1.9240203948       -2.1030557807
 H         -4.7690700770       -1.1712220614       -3.3844695523
 H         -5.1125450192        1.1960209281       -3.9011447824
 H         -3.4586724413        2.9022022983       -3.1791504832
 H         -1.7400500424        7.2349240851       -2.4773357860
 H         -0.1884416859        8.9433311549       -1.5670453181
 H          1.7696754316        8.2896914879       -0.2535300112
 H          2.2540235053        5.9071920599        0.2011164058
 H          2.1170510895        3.0943730664        0.3573850434
 H          1.4256337674        0.7291414884        0.2181612121
 H         -6.7707049987       -5.2648834075        1.5656974839
 H         -9.0524791286       -4.3980385884        1.9717319762
 H         -9.4802047084       -1.9779629867        2.0059535194
 H         -7.6275438950       -0.3692892758        1.6328852170
 H         -1.5502098664        2.1299872591        1.5840589004
 H         -1.2874913406        4.5861951360        1.4840842943
