  108
  -177.315413464500       0.542710011602109      !
 C         -3.4494762122        4.8879397907        0.6225490910
 C         -4.6208692017        4.2561348895        0.2367123011
 C         -4.7358059174        2.8826375396        0.3392550023
 C         -3.6658479266        2.1279089322        0.8091380193
 C         -3.7642733345        0.6682985065        0.8749797830
 N         -2.6652773555       -0.0242844783        0.7083542605
 C         -2.6360123749       -1.3856124993        0.6867749842
 C         -1.4283541013       -1.9987018434        0.2443397369
 C         -1.0419187807       -3.3105554565        0.5855565512
 C          0.2102955982       -3.7845808095        0.2885971327
 C          1.1400687443       -2.9674472476       -0.3681131857
 N          2.4384057480       -3.4213005128       -0.6422411373
 C          2.7273040875       -4.4794807002       -1.4841986221
 C          1.8747984680       -5.4269898027       -2.0282597539
 C          2.4265121644       -6.3888496984       -2.8546610498
 C          3.7887505167       -6.4024803202       -3.1425536685
 C          4.6376084266       -5.4442667727       -2.6216737145
 C          4.1071009631       -4.4701810806       -1.7872543456
 C          4.6657634115       -3.3370774946       -1.1052840048
 C          5.9554792389       -2.8125344735       -1.0754736384
 C          6.2078469550       -1.6676247999       -0.3515421830
 C          5.1691149591       -1.0966906083        0.3845288717
 C          3.8633224154       -1.6410362158        0.4431273059
 C          3.1491720279       -0.8792295828        1.4309328080
 C          1.8969778278       -0.9797182729        2.0342037343
 C          1.5286360204       -0.0382412354        2.9742809936
 C          2.3822086528        1.0046743730        3.3286155925
 C          3.6495729577        1.0981659441        2.7903622799
 C          4.0383637714        0.1346380853        1.8695387532
 N          5.2458515915       -0.0075348575        1.2268946708
 C          6.3839139372        0.7876086890        1.4316024808
 C          7.0386203647        1.3602993157        0.3454899017
 C          8.1640656157        2.1369057212        0.5503992161
 C          8.6378651603        2.3551435553        1.8333932608
 C          7.9840966912        1.7894086378        2.9154252384
 C          6.8632538420        1.0038379011        2.7198714290
 C          3.6003202150       -2.7334836629       -0.3912372564
 C          0.7546942248       -1.6989383604       -0.8020109688
 C         -0.5108440228       -1.2247939330       -0.5334740749
 N         -0.9360660071       -0.0064075304       -1.0778840468
 C         -2.0665704055        0.1354845919       -1.8636634736
 C         -2.9521392478       -0.8309083573       -2.3173313441
 C         -4.0371895400       -0.4065360596       -3.0623833943
 C         -4.2318217122        0.9387279723       -3.3641026845
 C         -3.3320583230        1.9022089521       -2.9454114884
 C         -2.2387845181        1.4965973085       -2.1970299575
 C         -1.1349717417        2.1918355386       -1.6014800596
 C         -0.7393712630        3.5136090201       -1.5053045492
 O         -1.3557012583        4.6028300832       -2.0277332386
 C         -0.6235502444        5.6799403675       -1.6278525625
 C         -0.8885915243        7.0058671812       -1.9131873989
 C         -0.0147893889        7.9513911951       -1.4041115804
 C          1.0874029280        7.5835488218       -0.6365888112
 C          1.3513372363        6.2586984395       -0.3511669010
 C          0.4876018179        5.2910981456       -0.8506242288
 C          0.4120371315        3.8595087753       -0.7672509689
 C          1.1740045646        2.8821878557       -0.1221843935
 C          0.7959307453        1.5604477894       -0.2005845946
 C         -0.3470395324        1.2249013452       -0.9295617913
 C         -3.8486451662       -2.0340298772        1.0030210546
 S         -4.2042282778       -3.7348936252        1.1250438298
 C         -5.8974174231       -3.3942110957        1.4239942514
 C         -6.8943258456       -4.3248462469        1.6399901560
 C         -8.1801701743       -3.8672843386        1.8727466227
 C         -8.4588258942       -2.5003672498        1.8869489157
 C         -7.4667191714       -1.5710304846        1.6705825393
 C         -6.1597224872       -2.0098628051        1.4378771838
 C         -4.9905144389       -1.2391704154        1.1854069152
 N         -4.9420281575        0.1066995625        1.1059553116
 C         -2.4899216983        2.7655680315        1.1935626325
 C         -2.3891752899        4.1412387799        1.1102290258
 H         -3.3609671291        5.9619860977        0.5442183503
 H         -5.4480480544        4.8389406067       -0.1412288895
 H         -5.6430001803        2.3758096080        0.0474627498
 H         -1.7268211497       -3.9334122349        1.1373124955
 H          0.5060349045       -4.7749716483        0.5997312302
 H          0.8159984558       -5.4115219439       -1.8203551656
 H          1.7868871806       -7.1431597974       -3.2881300838
 H          4.1830192362       -7.1718094876       -3.7894352870
 H          5.6908903050       -5.4498658538       -2.8579520719
 H          6.7468401877       -3.2980305898       -1.6249472291
 H          7.1958445505       -1.2352385428       -0.3242188053
 H          1.2219320034       -1.7807726836        1.7866848710
 H          0.5559495658       -0.1071002462        3.4373461716
 H          2.0533821320        1.7397556986        4.0477246540
 H          4.3212038704        1.8930145658        3.0782210891
 H          6.6540429424        1.2011979711       -0.6510019820
 H          8.6686568553        2.5793749633       -0.2954425966
 H          9.5154702117        2.9636755215        1.9895089654
 H          8.3546816897        1.9509559237        3.9166065945
 H          6.3632763704        0.5407709999        3.5574838787
 H          1.4421222965       -1.1011583095       -1.3827702056
 H         -2.8055305612       -1.8764442500       -2.0930207970
 H         -4.7503712630       -1.1360486609       -3.4163869993
 H         -5.0972270597        1.2287641149       -3.9405600788
 H         -3.4704592612        2.9451697399       -3.1837861675
 H         -1.7427530491        7.2835893111       -2.5092107512
 H         -0.1911984528        8.9966502606       -1.6076248089
 H          1.7452664458        8.3518401262       -0.2587737261
 H          2.2054152506        5.9747572108        0.2443592100
 H          2.0459732709        3.1652176821        0.4466296159
 H          1.3564983681        0.7975427237        0.3134118285
 H         -6.6712370881       -5.3807604028        1.6263009393
 H         -8.9743211733       -4.5777142536        2.0449769211
 H         -9.4701025269       -2.1706084531        2.0737649708
 H         -7.6668691931       -0.5112097176        1.6806453324
 H         -1.6640881894        2.1726856832        1.5575237187
 H         -1.4788762825        4.6342876995        1.4206106221
  108
  -177.314528474700       0.212742707073189      !
 C         -3.2468231844        4.8916067086        0.7565679172
 C         -4.4320361878        4.3046478324        0.3433369145
 C         -4.5870610003        2.9327173670        0.4068068180
 C         -3.5433536793        2.1352976472        0.8641022491
 C         -3.6835722169        0.6778292508        0.8936599418
 N         -2.6036241341       -0.0398846447        0.7101245358
 C         -2.6106904427       -1.4008343146        0.6621999314
 C         -1.4189001144       -2.0353446789        0.2062978409
 C         -1.0511320024       -3.3529347784        0.5448648308
 C          0.1993962592       -3.8381829000        0.2584961100
 C          1.1417874567       -3.0283806082       -0.3895829670
 N          2.4464253388       -3.4807261405       -0.6330020805
 C          2.7662820178       -4.5521430380       -1.4464760494
 C          1.9399441311       -5.5285987934       -1.9795443264
 C          2.5215316440       -6.4994412261       -2.7746566940
 C          3.8876483744       -6.4937844622       -3.0437114839
 C          4.7105468106       -5.5064801308       -2.5353432904
 C          4.1500584879       -4.5233477815       -1.7318091720
 C          4.6785748108       -3.3637256647       -1.0699529496
 C          5.9547789118       -2.8066924022       -1.0415384428
 C          6.1714698884       -1.6359954230       -0.3473177233
 C          5.1132366307       -1.0732805913        0.3670968178
 C          3.8234098425       -1.6532264434        0.4332939355
 C          3.0827073155       -0.8904002681        1.4002595121
 C          1.8334257571       -1.0180150341        2.0050833020
 C          1.4295819059       -0.0618702890        2.9149368166
 C          2.2453276440        1.0207504521        3.2381015784
 C          3.5117747208        1.1404428234        2.7026059882
 C          3.9374878957        0.1631015623        1.8131668478
 N          5.1523724196        0.0405573319        1.1795544934
 C          6.2622857932        0.8791529881        1.3634003147
 C          6.9057033502        1.4350475329        0.2617537318
 C          8.0031441546        2.2556587315        0.4460619984
 C          8.4595134418        2.5350605535        1.7236807558
 C          7.8166374679        1.9862258400        2.8209774008
 C          6.7242439273        1.1567912134        2.6463362634
 C          3.5932353726       -2.7676507760       -0.3810905113
 C          0.7685336652       -1.7595636185       -0.8346622524
 C         -0.4933158827       -1.2724328822       -0.5738642363
 N         -0.9086646456       -0.0504704284       -1.1173264756
 C         -2.0571499622        0.1065703365       -1.8736508142
 C         -2.9578811872       -0.8502151359       -2.3187034992
 C         -4.0616886332       -0.4110432525       -3.0270066417
 C         -4.2597344475        0.9392530367       -3.3031680302
 C         -3.3451920812        1.8934384790       -2.8948306716
 C         -2.2340208340        1.4730204214       -2.1817614001
 C         -1.1151874703        2.1567293448       -1.6013295543
 C         -0.7213716550        3.4773970850       -1.4849635774
 O         -1.3550902463        4.5759658415       -1.9653359437
 C         -0.6226661303        5.6469070518       -1.5497949675
 C         -0.9052394688        6.9785784752       -1.7878508125
 C         -0.0308178566        7.9160049737       -1.2649201112
 C          1.0891430770        7.5349607055       -0.5299686853
 C          1.3718381975        6.2041795308       -0.2937682370
 C          0.5076379970        5.2447899219       -0.8077321914
 C          0.4441987615        3.8109932658       -0.7636855824
 C          1.2255371841        2.8220667545       -0.1618241734
 C          0.8487141985        1.5013225124       -0.2607101896
 C         -0.3126308966        1.1780352803       -0.9650133751
 C         -3.8388126077       -2.0231408909        0.9681336076
 S         -4.2372023351       -3.7160064517        1.0577553344
 C         -5.9215375389       -3.3377159153        1.3627228066
 C         -6.9422497389       -4.2460663570        1.5608380382
 C         -8.2161252356       -3.7598118303        1.8015864042
 C         -8.4597077886       -2.3868076023        1.8412255552
 C         -7.4438024397       -1.4794938105        1.6433942505
 C         -6.1482787670       -1.9475279813        1.4034068885
 C         -4.9598440521       -1.2021131019        1.1660498690
 N         -4.8759800545        0.1434500780        1.1141740880
 C         -2.3522137728        2.7278089262        1.2736376444
 C         -2.2122020864        4.1016444396        1.2309809613
 H         -3.1270495675        5.9644619468        0.7092553205
 H         -5.2381018587        4.9210622387       -0.0270071134
 H         -5.5055392226        2.4604394368        0.0928568720
 H         -1.7469358695       -3.9684309741        1.0916044725
 H          0.4848460084       -4.8297690326        0.5754211536
 H          0.8781415306       -5.5291112971       -1.7868456868
 H          1.9025038391       -7.2765676115       -3.1975992369
 H          4.3056823925       -7.2705814192       -3.6663881469
 H          5.7670331884       -5.4972321408       -2.7571740278
 H          6.7634507397       -3.2858169120       -1.5712718640
 H          7.1478475074       -1.1774994574       -0.3252541390
 H          1.1885365593       -1.8501412819        1.7808184181
 H          0.4586406521       -0.1505626963        3.3783830932
 H          1.8881168982        1.7667159117        3.9320065427
 H          4.1544151355        1.9662854287        2.9685080775
 H          6.5342663615        1.2279661513       -0.7309711864
 H          8.4994930927        2.6840731250       -0.4117250355
 H          9.3145451108        3.1786128154        1.8638647063
 H          8.1724207790        2.1975214591        3.8182455456
 H          6.2325991644        0.7087306230        3.4969855961
 H          1.4641217269       -1.1716891320       -1.4157100430
 H         -2.8091005338       -1.8996855576       -2.1149384958
 H         -4.7865706256       -1.1330164201       -3.3727496356
 H         -5.1395938734        1.2408289385       -3.8512896033
 H         -3.4859307678        2.9404627236       -3.1135440714
 H         -1.7747282851        7.2668110801       -2.3564569811
 H         -0.2221777234        8.9655267408       -1.4297834672
 H          1.7457183410        8.2974906619       -0.1383103553
 H          2.2392721020        5.9097253282        0.2771187504
 H          2.1108492857        3.0944871028        0.3914574336
 H          1.4249734983        0.7297212165        0.2205237829
 H         -6.7467436200       -5.3069155286        1.5267449635
 H         -9.0283134059       -4.4527043505        1.9598035096
 H         -9.4623476169       -2.0346299811        2.0334027708
 H         -7.6163570092       -0.4153152820        1.6735392722
 H         -1.5462009681        2.1013629757        1.6256614544
 H         -1.2907274781        4.5595289393        1.5614238371
  108
  -177.313894116200       0.108723568829098      !
 C         -6.0228528770        3.0082142914       -2.9042288934
 C         -5.9957235344        3.3973715055       -1.5743506922
 C         -5.3661544647        2.6040684430       -0.6348461137
 C         -4.7447467373        1.4204485691       -1.0236862964
 C         -4.0127813435        0.6311672739       -0.0333501256
 N         -2.9847370848       -0.0779621854       -0.4366364136
 C         -2.1547961990       -0.7306881860        0.4232284387
 C         -0.8979490857       -1.1908910601       -0.0681877991
 C         -0.1648689154       -2.2188601525        0.5624751034
 C          1.0401161573       -2.6470805880        0.0761354804
 C          1.5910619189       -2.0636163333       -1.0746612167
 N          2.8493710017       -2.4785835380       -1.5302291210
 C          3.0809975833       -3.0765500304       -2.7562492434
 C          2.2464783066       -3.1819195217       -3.8569257838
 C          2.7259672927       -3.8494697314       -4.9694542174
 C          4.0006666600       -4.4085914174       -4.9851195054
 C          4.8286076844       -4.3248668744       -3.8816323451
 C          4.3695371811       -3.6558555123       -2.7553508570
 C          4.9298451287       -3.3998878229       -1.4587493352
 C          6.1256231067       -3.8001208297       -0.8687305071
 C          6.3932204820       -3.4430451522        0.4349766468
 C          5.4855315529       -2.6223002787        1.1058949624
 C          4.2709408881       -2.1691212438        0.5351881009
 C          3.6621697975       -1.3025340436        1.5087356436
 C          2.5681513713       -0.4411688323        1.5096963375
 C          2.2872056421        0.2840305841        2.6493080556
 C          3.0949918226        0.1995132016        3.7812175357
 C          4.2220372692       -0.5959853537        3.7893665104
 C          4.4988423307       -1.3425798599        2.6519970423
 N          5.5904031836       -2.1383748717        2.3920654725
 C          6.6448089159       -2.3858864422        3.2845963705
 C          7.9600049125       -2.1322051524        2.9076846890
 C          8.9910206383       -2.3804068660        3.7950905063
 C          8.7198830834       -2.8701892754        5.0619948522
 C          7.4103870881       -3.1155253447        5.4408060156
 C          6.3736761238       -2.8795893201        4.5571181406
 C          3.9658141311       -2.6413296219       -0.7464634634
 C          0.8788048350       -1.0712897523       -1.7406975413
 C         -0.3335850397       -0.6246712004       -1.2500522641
 N         -0.9760248610        0.4212937395       -1.9281794302
 C         -1.3564358967        0.3832753745       -3.2486706763
 C         -1.2655029822       -0.6574515491       -4.1634277741
 C         -1.7497226460       -0.4381333557       -5.4386244001
 C         -2.3183151937        0.7826482060       -5.7999830941
 C         -2.4345728747        1.8159075463       -4.8884067163
 C         -1.9570973632        1.6147984815       -3.6025673943
 C         -1.9378944881        2.4185562985       -2.4159344781
 C         -2.4381114449        3.6574904874       -2.0534055362
 O         -3.1393739686        4.5243191903       -2.8237548278
 C         -3.4743413966        5.5663916041       -2.0103499308
 C         -4.2153979667        6.6778770261       -2.3629075319
 C         -4.4507662046        7.6217736398       -1.3774585558
 C         -3.9603934474        7.4591051926       -0.0846371275
 C         -3.2179690944        6.3484162263        0.2659228798
 C         -2.9693645422        5.3873344880       -0.7061627953
 C         -2.2797114111        4.1275788727       -0.7339057076
 C         -1.5766928821        3.3841891373        0.2163462681
 C         -1.0712876276        2.1486295494       -0.1226906704
 C         -1.2983548552        1.6581536177       -1.4098523639
 C         -2.5520724541       -0.7507185151        1.7798311832
 S         -1.7834985136       -1.4845285748        3.1609286596
 C         -2.9908254688       -0.8089148435        4.2373889674
 C         -3.0519918958       -0.9725341808        5.6070662978
 C         -4.0915646515       -0.3695540533        6.2947001431
 C         -5.0508211438        0.3851068886        5.6190301199
 C         -4.9912702849        0.5513411267        4.2539451790
 C         -3.9530245438       -0.0533049852        3.5385929080
 C         -3.6873532772       -0.0098400813        2.1417639081
 N         -4.3955718380        0.6898231187        1.2329670068
 C         -4.7776559801        1.0322890800       -2.3592939524
 C         -5.4208594724        1.8222650001       -3.2924566704
 H         -6.5128422683        3.6310307401       -3.6381555391
 H         -6.4598491241        4.3251602613       -1.2719480673
 H         -5.3305492483        2.8943706382        0.4043754757
 H         -0.5815949051       -2.7031819263        1.4295682107
 H          1.5790482146       -3.4398311501        0.5716047069
 H          1.2528976319       -2.7625648641       -3.8483587422
 H          2.0974448667       -3.9400296508       -5.8428712667
 H          4.3414755854       -4.9203405269       -5.8726744305
 H          5.8115431789       -4.7709869578       -3.8915828454
 H          6.8256985255       -4.4028834851       -1.4259723539
 H          7.2889872042       -3.7844059137        0.9296250807
 H          1.9598338697       -0.3139358163        0.6313558404
 H          1.4325507620        0.9438818271        2.6611149286
 H          2.8499580811        0.7849265685        4.6545846392
 H          4.8800503433       -0.6228221819        4.6447011971
 H          8.1640351628       -1.7279425764        1.9273778055
 H         10.0098509819       -2.1814118936        3.4984304859
 H          9.5270989365       -3.0587168490        5.7530952795
 H          7.1946535192       -3.4989288543        6.4268990306
 H          5.3519634098       -3.0857540330        4.8396203311
 H          1.3026060755       -0.5976777465       -2.6146571596
 H         -0.8447589915       -1.6104023310       -3.8811197321
 H         -1.6904555417       -1.2300213587       -6.1704160459
 H         -2.6814445679        0.9146304646       -6.8082804521
 H         -2.8894740352        2.7566854147       -5.1565772061
 H         -4.5934709139        6.7961084205       -3.3656526629
 H         -5.0279266650        8.5021112031       -1.6169632876
 H         -4.1668774537        8.2176193195        0.6556754057
 H         -2.8396545748        6.2235920094        1.2689479548
 H         -1.4427599623        3.7756826019        1.2126912178
 H         -0.5338406321        1.5528243544        0.5992240056
 H         -2.3044118390       -1.5552255377        6.1231197336
 H         -4.1586032111       -0.4855703169        7.3656305086
 H         -5.8529972151        0.8419588902        6.1795826150
 H         -5.7270365948        1.1299925922        3.7180102660
 H         -4.2977026828        0.1101910389       -2.6506196767
 H         -5.4440348728        1.5161960966       -4.3280995039
  108
  -177.313751451400       9.348878099741363E-002 !
 C         -5.7059414393        3.3390653648       -2.8780649498
 C         -5.7268281201        3.6299758203       -1.5232977902
 C         -5.2253482987        2.7194792827       -0.6132993238
 C         -4.6820344472        1.5167586092       -1.0558961260
 C         -4.0831663133        0.5994883884       -0.0849455108
 N         -3.0392784903       -0.1047474306       -0.4510752291
 C         -2.3136162350       -0.8647776285        0.4167222881
 C         -1.0288205852       -1.3099649500       -0.0078236813
 C         -0.3214246518       -2.3497961526        0.6351742303
 C          0.8959304304       -2.7837521942        0.1838590170
 C          1.4791582570       -2.2049041416       -0.9514106783
 N          2.7284366474       -2.6530629433       -1.4098968278
 C          2.8999330099       -3.3502987525       -2.5903769590
 C          1.9948129009       -3.5752530694       -3.6146620533
 C          2.4206046589       -4.3242162202       -4.6964537113
 C          3.7111978251       -4.8438680950       -4.7541836032
 C          4.6108108666       -4.6365874045       -3.7257244053
 C          4.2061128394       -3.8847176029       -2.6308394309
 C          4.8422604540       -3.4895318999       -1.4067750999
 C          6.1006031952       -3.7772125853       -0.8852786926
 C          6.4556675843       -3.2743446207        0.3466763687
 C          5.5591390921       -2.4370172716        1.0121299145
 C          4.2708145735       -2.1139072901        0.5196854171
 C          3.6922488346       -1.1990514499        1.4685347513
 C          2.5339215175       -0.4278958826        1.5129920788
 C          2.3157281828        0.3956427152        2.5983125163
 C          3.2425340047        0.4947626982        3.6335460015
 C          4.4211427626       -0.2207229501        3.5978261856
 C          4.6369160329       -1.0651469373        2.5170654170
 N          5.7515758179       -1.8161341777        2.2268992346
 C          6.9166549711       -1.8732683715        3.0075232185
 C          8.1514815115       -1.5603770317        2.4472202062
 C          9.2939346840       -1.6120860768        3.2243286076
 C          9.2136897219       -1.9643718686        4.5615623892
 C          7.9842963447       -2.2700718701        5.1216747209
 C          6.8374254271       -2.2298767974        4.3501882797
 C          3.8965172410       -2.7081683864       -0.6916617714
 C          0.8058858284       -1.1873752084       -1.6185937719
 C         -0.4062087243       -0.7180602438       -1.1490161485
 N         -0.9837675491        0.3780816441       -1.8057262161
 C         -1.2834799253        0.4244749264       -3.1461697262
 C         -1.2044594135       -0.5788899497       -4.1031267489
 C         -1.5937304329       -0.2710067369       -5.3924425750
 C         -2.0558980255        1.0010179497       -5.7278025113
 C         -2.1571387060        1.9998608596       -4.7766805184
 C         -1.7757549081        1.7097964749       -3.4760460362
 C         -1.7703079456        2.4600002425       -2.2544499743
 C         -2.1925165212        3.7200440017       -1.8664158738
 O         -2.7751506066        4.6713928334       -2.6359518978
 C         -3.0654368631        5.7084176880       -1.7992212683
 C         -3.6863253605        6.8933761774       -2.1446176454
 C         -3.8916998403        7.8192937720       -1.1357150646
 C         -3.4885935534        7.5682050853        0.1730427128
 C         -2.8677550649        6.3833318526        0.5168810238
 C         -2.6516485907        5.4386321477       -0.4786666259
 C         -2.0708642613        4.1255775981       -0.5218468009
 C         -1.4872542078        3.2903283884        0.4328036395
 C         -1.0625818676        2.0316035069        0.0686388635
 C         -1.2469990315        1.6137486163       -1.2500374519
 C         -2.8669179390       -1.0222964737        1.7106243594
 S         -2.3098333785       -1.9607998709        3.0702612827
 C         -3.6350853632       -1.3871569528        4.0622870037
 C         -3.8876882715       -1.7320906675        5.3755489433
 C         -4.9990753510       -1.1862270851        5.9946540077
 C         -5.8393808020       -0.3087057251        5.3089963911
 C         -5.5882099502        0.0381688249        4.0007943597
 C         -4.4747964948       -0.5061674944        3.3541673333
 C         -4.0228520355       -0.2912795787        2.0217968781
 N         -4.6002370177        0.5402415034        1.1320476474
 C         -4.6652753420        1.2279570289       -2.4161650061
 C         -5.1839062040        2.1347396520       -3.3207627420
 H         -6.0960301750        4.0528779604       -3.5885681062
 H         -6.1285718484        4.5716855940       -1.1776422129
 H         -5.2308016748        2.9314757195        0.4452569044
 H         -0.7632620944       -2.8367662244        1.4875459658
 H          1.4169023076       -3.5798453354        0.6933695307
 H          0.9903592365       -3.1841293649       -3.5662832825
 H          1.7377695572       -4.5127444553       -5.5114517501
 H          4.0078724391       -5.4232910127       -5.6156610965
 H          5.6067378229       -5.0507527420       -3.7692183095
 H          6.7832613096       -4.4012010191       -1.4406232457
 H          7.4090395151       -3.5143862973        0.7906195212
 H          1.8214788189       -0.4481988968        0.7079503931
 H          1.4147470306        0.9894778473        2.6403052243
 H          3.0449121814        1.1556319941        4.4641366190
 H          5.1629447501       -0.1136483540        4.3746477549
 H          8.2048298468       -1.2637381234        1.4102014919
 H         10.2496647466       -1.3678928059        2.7850505023
 H         10.1071545334       -1.9989933586        5.1661401171
 H          7.9177918220       -2.5466661360        6.1633346045
 H          5.8782355486       -2.4839150390        4.7762918859
 H          1.2630656539       -0.7139691194       -2.4759118839
 H         -0.8606643520       -1.5684883306       -3.8442551028
 H         -1.5410125832       -1.0319646521       -6.1568063523
 H         -2.3470658145        1.2017194762       -6.7480664050
 H         -2.5276980786        2.9817558069       -5.0267053034
 H         -3.9961101445        7.0810064696       -3.1600818413
 H         -4.3750911743        8.7558303558       -1.3693499648
 H         -3.6671219576        8.3160768337        0.9311701158
 H         -2.5568511439        6.1900662448        1.5321229179
 H         -1.3807483496        3.6309165507        1.4509454491
 H         -0.6187837436        1.3655663367        0.7926099243
 H         -3.2322845293       -2.4102384177        5.9002418898
 H         -5.2168045558       -1.4444594988        7.0197215447
 H         -6.7010120035        0.1002406755        5.8156179704
 H         -6.2301863611        0.7128006140        3.4565305518
 H         -4.2473507232        0.2904209471       -2.7508346917
 H         -5.1712965683        1.9046490386       -4.3760497583
  108
  -177.313002790700       4.233493149819045E-002 !
 C         -5.9890568941        3.0425084156       -2.8932233357
 C         -5.9466799982        3.4234835985       -1.5613376357
 C         -5.3299451791        2.6111962104       -0.6296830735
 C         -4.7374799816        1.4157978619       -1.0281195592
 C         -4.0123681582        0.6103607119       -0.0462989069
 N         -3.0164054174       -0.1356853347       -0.4644817749
 C         -2.1862541981       -0.7999498041        0.3858793514
 C         -0.9472284335       -1.2922335451       -0.1207420292
 C         -0.2341946386       -2.3366174949        0.5051023005
 C          0.9657754663       -2.7788755526        0.0189781251
 C          1.5229206068       -2.2005924651       -1.1310039297
 N          2.7894033180       -2.6139828422       -1.5676992658
 C          3.0395682910       -3.2634369662       -2.7617877350
 C          2.2099404183       -3.4379752768       -3.8572358563
 C          2.7069443835       -4.1484978131       -4.9348223149
 C          3.9938614765       -4.6794836440       -4.9202974753
 C          4.8180098577       -4.5232291762       -3.8216917929
 C          4.3417145957       -3.8109391046       -2.7295799758
 C          4.8911976156       -3.4781829599       -1.4454163059
 C          6.0959437584       -3.8145793169       -0.8336596368
 C          6.3479374241       -3.3874448043        0.4520664402
 C          5.4125978340       -2.5655016081        1.0824813277
 C          4.1874887903       -2.1750679609        0.4883961080
 C          3.5474701349       -1.2864418467        1.4218565099
 C          2.4289682883       -0.4579255711        1.3837623541
 C          2.1214792520        0.3056967086        2.4908695926
 C          2.9246670170        0.2917479183        3.6289301613
 C          4.0745936952       -0.4687456623        3.6737588367
 C          4.3794887026       -1.2519964766        2.5686179309
 N          5.4960816788       -2.0241639262        2.3466932378
 C          6.5656026201       -2.1708518406        3.2438826104
 C          7.8620245183       -1.8564247502        2.8488256864
 C          8.9063626745       -1.9896269707        3.7452496804
 C          8.6664296357       -2.4267044910        5.0375219793
 C          7.3756334414       -2.7371500673        5.4323925890
 C          6.3260537952       -2.6147569633        4.5407237689
 C          3.9046468677       -2.7125204604       -0.7724827438
 C          0.8240566801       -1.2013569458       -1.8002620968
 C         -0.3770961024       -0.7317716795       -1.3026329750
 N         -0.9918659045        0.3456666262       -1.9555953836
 C         -1.3720649935        0.3597676817       -3.2766296901
 C         -1.2980723141       -0.6497781826       -4.2270839348
 C         -1.7753093591       -0.3764381642       -5.4945737125
 C         -2.3204083865        0.8665235707       -5.8135494787
 C         -2.4183311475        1.8696611154       -4.8668128061
 C         -1.9466998803        1.6150397204       -3.5884426270
 C         -1.9075402908        2.3799480338       -2.3766670221
 C         -2.3753659877        3.6188640787       -1.9726216141
 O         -3.0563336090        4.5282203860       -2.7116553876
 C         -3.3589343338        5.5531861483       -1.8643983772
 C         -4.0681600174        6.6965450709       -2.1783966200
 C         -4.2713732341        7.6157657701       -1.1628495515
 C         -3.7812093248        7.3983572241        0.1220347426
 C         -3.0705946343        6.2558943033        0.4340797474
 C         -2.8541907974        5.3192085882       -0.5689211953
 C         -2.1993707701        4.0429752724       -0.6396758469
 C         -1.5097612973        3.2539757479        0.2830741842
 C         -1.0354472038        2.0185910407       -0.0978712101
 C         -1.2825264123        1.5733909747       -1.3979330172
 C         -2.5473003472       -0.7862301090        1.7519643152
 S         -1.7521314579       -1.5064691807        3.1247999513
 C         -2.9009777604       -0.7664088738        4.2228168763
 C         -2.9149064000       -0.8867245777        5.5982474241
 C         -3.9105693970       -0.2333623723        6.3047374906
 C         -4.8735080104        0.5277282627        5.6416080915
 C         -4.8609219569        0.6511209908        4.2707795984
 C         -3.8672754792       -0.0040107577        3.5366789556
 C         -3.6494835560       -0.0049343147        2.1310821482
 N         -4.3622205500        0.6972829733        1.2278453607
 C         -4.7859092522        1.0358086217       -2.3656890957
 C         -5.4155767443        1.8455560952       -3.2911367540
 H         -6.4681928179        3.6804654741       -3.6213141890
 H         -6.3880965784        4.3598213788       -1.2512948876
 H         -5.2811923729        2.8948194118        0.4108724413
 H         -0.6597959521       -2.8163386272        1.3705840412
 H          1.4973628961       -3.5767192700        0.5144008766
 H          1.2075928817       -3.0388792239       -3.8678696467
 H          2.0836171913       -4.2959571529       -5.8041792794
 H          4.3478130786       -5.2271160757       -5.7809286327
 H          5.8107795241       -4.9470353950       -3.8095627786
 H          6.8158212954       -4.4220537201       -1.3596841405
 H          7.2526968197       -3.6751789160        0.9643345348
 H          1.8221010765       -0.3837981831        0.4987968397
 H          1.2485719222        0.9411544962        2.4722108110
 H          2.6574121447        0.9047859894        4.4764924499
 H          4.7289758308       -0.4409316234        4.5317726872
 H          8.0394787371       -1.4944824251        1.8469682160
 H          9.9106872686       -1.7422741508        3.4353202756
 H          9.4837038278       -2.5242514016        5.7357744753
 H          7.1849249022       -3.0811335006        6.4380167731
 H          5.3190633778       -2.8684482179        4.8370944235
 H          1.2553430384       -0.7351827803       -2.6746446283
 H         -0.8920302019       -1.6185238493       -3.9790510794
 H         -1.7280800590       -1.1425438538       -6.2541722091
 H         -2.6788983059        1.0406527491       -6.8171156822
 H         -2.8539134896        2.8280275310       -5.1028565850
 H         -4.4462861057        6.8575681489       -3.1750945348
 H         -4.8227086063        8.5200122680       -1.3720800155
 H         -3.9623439792        8.1390233968        0.8866539799
 H         -2.6923370689        6.0883268860        1.4308799798
 H         -1.3604120063        3.6112440813        1.2900782536
 H         -0.5061914197        1.3891777492        0.6009012236
 H         -2.1645678850       -1.4746983383        6.1043043282
 H         -3.9398728499       -0.3144714520        7.3805991687
 H         -5.6403850746        1.0250447582        6.2169062301
 H         -5.5993544114        1.2354357307        3.7447583785
 H         -4.3269296963        0.1054374683       -2.6647107240
 H         -5.4508358322        1.5462207127       -4.3284611119
