  108
       -177.96941882
 C         -3.2377114257        4.9112793393        0.6622929647
 C         -4.4220173000        4.3213080365        0.2507545030
 C         -4.5812536839        2.9509236517        0.3340895808
 C         -3.5425818394        2.1577325669        0.8098321532
 C         -3.6870442952        0.7012651669        0.8606488209
 N         -2.6080046651       -0.0220654503        0.6946589492
 C         -2.6185763545       -1.3835622271        0.6673556422
 C         -1.4258049306       -2.0281398207        0.2284588877
 C         -1.0637850308       -3.3414201692        0.5892371848
 C          0.1871063198       -3.8343355064        0.3179457984
 C          1.1356856269       -3.0370200410       -0.3365561173
 N          2.4405154457       -3.4965300052       -0.5650710746
 C          2.7623328152       -4.5810437114       -1.3602100330
 C          1.9365374664       -5.5632546322       -1.8834553694
 C          2.5202485330       -6.5476328550       -2.6601558565
 C          3.8879900650       -6.5497504758       -2.9208779640
 C          4.7105268427       -5.5570583370       -2.4225151783
 C          4.1478974614       -4.5603205997       -1.6374511568
 C          4.6756041714       -3.3922046824       -0.9900429020
 C          5.9531607880       -2.8382485739       -0.9622567855
 C          6.1688828203       -1.6577261427       -0.2845698386
 C          5.1078896711       -1.0813674341        0.4147140254
 C          3.8160701446       -1.6567589318        0.4817910596
 C          3.0716198598       -0.8773314819        1.4325029283
 C          1.8183242798       -0.9923701382        2.0315171638
 C          1.4116126007       -0.0214237079        2.9242571524
 C          2.2283915012        1.0637784204        3.2359506078
 C          3.4984075992        1.1719028365        2.7064808631
 C          3.9268045521        0.1800136397        1.8346084502
 N          5.1451812708        0.0445784091        1.2103956818
 C          6.2562893224        0.8828738929        1.3882980062
 C          6.9079573824        1.4202259047        0.2823090162
 C          8.0065401427        2.2405797454        0.4608701834
 C          8.4558926105        2.5381319891        1.7368768510
 C          7.8048123311        2.0077714049        2.8384126462
 C          6.7111931857        1.1787284743        2.6696822156
 C          3.5877542614       -2.7828050617       -0.3169804207
 C          0.7686931935       -1.7741107624       -0.8031257526
 C         -0.4933580997       -1.2796710692       -0.5574996875
 N         -0.9019757254       -0.0649922267       -1.1219861660
 C         -2.0453877546        0.0836347568       -1.8876399916
 C         -2.9460562773       -0.8773700556       -2.3236365913
 C         -4.0442968345       -0.4460363439       -3.0452840610
 C         -4.2368873050        0.9004367872       -3.3431201628
 C         -3.3221914516        1.8582466950       -2.9437097565
 C         -2.2165639741        1.4457171378       -2.2175362820
 C         -1.0993852510        2.1351468190       -1.6406952895
 C         -0.7026022492        3.4563632352       -1.5419752407
 O         -1.3303136065        4.5492108536       -2.0428471915
 C         -0.5974500170        5.6243633589       -1.6391238779
 C         -0.8748503112        6.9530209120       -1.8990954922
 C         -0.0010194430        7.8959234661       -1.3850988953
 C          1.1133740356        7.5230718207       -0.6375899317
 C          1.3909099006        6.1952758870       -0.3794862315
 C          0.5271842823        5.2305215251       -0.8841211807
 C          0.4594771577        3.7977361060       -0.8187057413
 C          1.2343705843        2.8159656198       -0.1971195278
 C          0.8544732886        1.4948924987       -0.2782565298
 C         -0.3034555755        1.1640739010       -0.9846840508
 C         -3.8502718783       -1.9978328028        0.9751587252
 S         -4.2539226281       -3.6880601694        1.0880203980
 C         -5.9390229781       -3.3006368439        1.3768697449
 C         -6.9634542959       -4.2031151252        1.5824834406
 C         -8.2374115239       -3.7098237726        1.8080020521
 C         -8.4773989342       -2.3357236472        1.8253000569
 C         -7.4577789826       -1.4342646111        1.6199564908
 C         -6.1621278604       -1.9093846103        1.3950550425
 C         -4.9701933004       -1.1708712415        1.1537072073
 N         -4.8822603667        0.1735171415        1.0819282919
 C         -2.3523111796        2.7531834645        1.2176275889
 C         -2.2082091110        4.1258294476        1.1549819040
 H         -3.1146584557        5.9829647368        0.5994364728
 H         -5.2240878210        4.9341956400       -0.1338426236
 H         -5.4991158122        2.4764087919        0.0217147773
 H         -1.7646227585       -3.9466578177        1.1409768809
 H          0.4678512835       -4.8217575329        0.6516314404
 H          0.8735829214       -5.5579745724       -1.6972899939
 H          1.9016436785       -7.3294238948       -3.0750438424
 H          4.3076418994       -7.3370448016       -3.5291148931
 H          5.7683672002       -5.5540323034       -2.6379739654
 H          6.7637058596       -3.3275472926       -1.4796844323
 H          7.1463834353       -1.2015833134       -0.2634778019
 H          1.1724943367       -1.8260656105        1.8159563791
 H          0.4376212814       -0.1004438531        3.3830299059
 H          1.8690414524        1.8211632378        3.9162475019
 H          4.1417175255        1.9999542022        2.9637548548
 H          6.5420008757        1.1990856438       -0.7094186271
 H          8.5093010084        2.6545692152       -0.4002593000
 H          9.3118465214        3.1814313717        1.8725198222
 H          8.1550995835        2.2332366668        3.8345228872
 H          6.2131250680        0.7449739929        3.5240020345
 H          1.4694471296       -1.1970122997       -1.3887510456
 H         -2.8014492271       -1.9240203948       -2.1030557807
 H         -4.7690700770       -1.1712220614       -3.3844695523
 H         -5.1125450192        1.1960209281       -3.9011447824
 H         -3.4586724413        2.9022022983       -3.1791504832
 H         -1.7400500424        7.2349240851       -2.4773357860
 H         -0.1884416859        8.9433311549       -1.5670453181
 H          1.7696754316        8.2896914879       -0.2535300112
 H          2.2540235053        5.9071920599        0.2011164058
 H          2.1170510895        3.0943730664        0.3573850434
 H          1.4256337674        0.7291414884        0.2181612121
 H         -6.7707049987       -5.2648834075        1.5656974839
 H         -9.0524791286       -4.3980385884        1.9717319762
 H         -9.4802047084       -1.9779629867        2.0059535194
 H         -7.6275438950       -0.3692892758        1.6328852170
 H         -1.5502098664        2.1299872591        1.5840589004
 H         -1.2874913406        4.5861951360        1.4840842943
  108
       -177.96933292
 C         -3.4395533802        4.9061229625        0.5271042857
 C         -4.6103316388        4.2716899803        0.1437218947
 C         -4.7297233207        2.9002245114        0.2663942973
 C         -3.6647589832        2.1498399240        0.7542358222
 C         -3.7676563518        0.6916693866        0.8416206543
 N         -2.6696021821       -0.0063277318        0.6922738081
 C         -2.6440050109       -1.3679004742        0.6915409696
 C         -1.4353882959       -1.9908977603        0.2658814632
 C         -1.0547017486       -3.2984523941        0.6293366957
 C          0.1979715406       -3.7803117845        0.3472960237
 C          1.1340061386       -2.9757630455       -0.3160246842
 N          2.4327181626       -3.4372302196       -0.5752601392
 C          2.7237884115       -4.5088581184       -1.3992696795
 C          1.8719736847       -5.4622222939       -1.9341063515
 C          2.4260273554       -6.4380139325       -2.7424112270
 C          3.7899515804       -6.4596924405       -3.0216996674
 C          4.6382898228       -5.4959675177       -2.5102259340
 C          4.1054271590       -4.5078869002       -1.6939595177
 C          4.6630827378       -3.3660620199       -1.0258523320
 C          5.9540516095       -2.8446075198       -0.9960944568
 C          6.2051965560       -1.6895140757       -0.2880904115
 C          5.1635951843       -1.1046604978        0.4328419589
 C          3.8559559089       -1.6445283930        0.4916829764
 C          3.1379273171       -0.8658753044        1.4634103769
 C          1.8818043174       -0.9538068561        2.0604423308
 C          1.5103687626        0.0028371277        2.9838424984
 C          2.3646729552        1.0487104719        3.3275364138
 C          3.6355499562        1.1305928276        2.7957126536
 C          4.0272551888        0.1521380680        1.8920238283
 N          5.2382356398       -0.0030408309        1.2590331061
 C          6.3772436425        0.7920488060        1.4586269164
 C          7.0401525182        1.3464005028        0.3679841641
 C          8.1664907553        2.1229923035        0.5679834138
 C          8.6330696576        2.3594225089        1.8504000253
 C          7.9711429969        1.8119611536        2.9368628958
 C          6.8493250287        1.0265358410        2.7463822094
 C          3.5949961224       -2.7488153202       -0.3276009653
 C          0.7548242461       -1.7129592220       -0.7714840119
 C         -0.5109990643       -1.2313767402       -0.5179456174
 N         -0.9294938925       -0.0202612914       -1.0833860016
 C         -2.0547881697        0.1127227485       -1.8781506910
 C         -2.9402689554       -0.8580602143       -2.3225224506
 C         -4.0195701176       -0.4421333620       -3.0805741613
 C         -4.2086053068        0.8989105234       -3.4038674070
 C         -3.3087252597        1.8662120658       -2.9943363343
 C         -2.2211687106        1.4690720450       -2.2331899029
 C         -1.1190702001        2.1702999130       -1.6415000575
 C         -0.7203764424        3.4923103092       -1.5629736025
 O         -1.3304693737        4.5751253509       -2.1056476517
 C         -0.5977662271        5.6562089573       -1.7176778569
 C         -0.8573627532        6.9783568374       -2.0247273498
 C          0.0159556835        7.9291470739       -1.5247104941
 C          1.1124192833        7.5700386383       -0.7449439764
 C          1.3709113357        6.2489713707       -0.4378305532
 C          0.5075391698        5.2762264915       -0.9278333361
 C          0.4274733569        3.8462784142       -0.8232044239
 C          1.1827653075        2.8768209394       -0.1587138599
 C          0.8014895805        1.5550667905       -0.2193603519
 C         -0.3379487160        1.2115659265       -0.9501597431
 C         -3.8603472158       -2.0081638169        1.0101464503
 S         -4.2214120919       -3.7060115218        1.1557888964
 C         -5.9154344564       -3.3562592756        1.4391385338
 C         -6.9162336854       -4.2808121079        1.6631148315
 C         -8.2021908355       -3.8162991153        1.8810047074
 C         -8.4771125902       -2.4485773332        1.8727464533
 C         -7.4811163183       -1.5253154093        1.6483899789
 C         -6.1739553361       -1.9711573273        1.4303966964
 C         -5.0010843713       -1.2075472562        1.1734359688
 N         -4.9483594471        0.1368242768        1.0738631927
 C         -2.4894226458        2.7900927190        1.1361451792
 C         -2.3843319540        4.1640615088        1.0325592340
 H         -3.3475718837        5.9786122704        0.4330238888
 H         -5.4335623499        4.8509144042       -0.2480907710
 H         -5.6365331878        2.3914700361       -0.0232321003
 H         -1.7446893331       -3.9110029277        1.1862706419
 H          0.4890444575       -4.7666544156        0.6752364888
 H          0.8119735824       -5.4407408041       -1.7329612121
 H          1.7869536033       -7.1970958031       -3.1682970119
 H          4.1860070009       -7.2398235784       -3.6543974869
 H          5.6929723719       -5.5079976894       -2.7399246995
 H          6.7473887142       -3.3405303622       -1.5332691302
 H          7.1942119749       -1.2594292621       -0.2612716598
 H          1.2060468454       -1.7567062126        1.8209739947
 H          0.5346899476       -0.0563530668        3.4419224392
 H          2.0335225209        1.7955188873        4.0333734054
 H          4.3076294321        1.9279093543        3.0755887739
 H          6.6612127141        1.1732127678       -0.6283188717
 H          8.6774601582        2.5511942343       -0.2813652173
 H          9.5114016297        2.9678869743        2.0026427080
 H          8.3360689376        1.9877035450        3.9377317903
 H          6.3429619666        0.5776012047        3.5878435482
 H          1.4474442575       -1.1259299780       -1.3570212187
 H         -2.7979480553       -1.9004584228       -2.0814719006
 H         -4.7326140488       -1.1750147058       -3.4278329205
 H         -5.0696687804        1.1824866964       -3.9899601943
 H         -3.4427600701        2.9057996161       -3.2493596802
 H         -1.7070977767        7.2492928084       -2.6301275626
 H         -0.1562924424        8.9716649128       -1.7451451660
 H          1.7701093458        8.3422051295       -0.3748049936
 H          2.2205485271        5.9718097107        0.1671663741
 H          2.0520376626        3.1661086259        0.4110781125
 H          1.3567833361        0.7985511635        0.3095871626
 H         -6.6960129461       -5.3374103090        1.6668243348
 H         -8.9993560114       -4.5218849476        2.0591228272
 H         -9.4885848598       -2.1132909975        2.0483267801
 H         -7.6783658355       -0.4649280477        1.6411359905
 H         -1.6674801670        2.2005840508        1.5141243154
 H         -1.4745691506        4.6593127229        1.3410006899
  108
       -177.96753632
 C         -5.9943819713        2.9688689754       -3.0019755588
 C         -5.9740307646        3.3848955068       -1.6801347507
 C         -5.3530088573        2.6087388052       -0.7208285531
 C         -4.7333840793        1.4153633067       -1.0816890681
 C         -4.0102654814        0.6439151784       -0.0710104295
 N         -2.9822630457       -0.0767386310       -0.4534349283
 C         -2.1598941310       -0.7146447615        0.4246344351
 C         -0.9016826808       -1.1889902288       -0.0495402104
 C         -0.1760839514       -2.2063933234        0.6064019475
 C          1.0303477500       -2.6484846579        0.1363319554
 C          1.5903694282       -2.0904081591       -1.0226465380
 N          2.8499818800       -2.5188035174       -1.4618908123
 C          3.0870126109       -3.1423573561       -2.6740530056
 C          2.2588829416       -3.2672671696       -3.7775079384
 C          2.7428312893       -3.9589196237       -4.8732557951
 C          4.0156354536       -4.5225485942       -4.8696667863
 C          4.8370939755       -4.4191997447       -3.7630028970
 C          4.3734845299       -3.7258757732       -2.6534083437
 C          4.9267380391       -3.4454889078       -1.3588297557
 C          6.1174717212       -3.8376793999       -0.7534095990
 C          6.3783327647       -3.4550723912        0.5444066942
 C          5.4694354249       -2.6177911759        1.1928806856
 C          4.2599568447       -2.1722096159        0.6055760968
 C          3.6482779262       -1.2839518297        1.5575306336
 C          2.5572994103       -0.4190531519        1.5342192209
 C          2.2719256082        0.3301160812        2.6571024818
 C          3.0724662044        0.2659048457        3.7954751992
 C          4.1966459751       -0.5330675301        3.8267606879
 C          4.4777905088       -1.3035677170        2.7065281590
 N          5.5681266607       -2.1081681168        2.4695798738
 C          6.6161748990       -2.3410401694        3.3734661096
 C          7.9345345488       -2.0995218443        2.9996294418
 C          8.9592223186       -2.3331090734        3.8982609475
 C          8.6786193992       -2.7961080749        5.1731503270
 C          7.3659772256       -3.0292635878        5.5487518142
 C          6.3355286147       -2.8078445895        4.6540513174
 C          3.9610288619       -2.6693495277       -0.6680831165
 C          0.8856849098       -1.1094297034       -1.7131011574
 C         -0.3281132932       -0.6488315818       -1.2391460751
 N         -0.9627202980        0.3852920315       -1.9423461426
 C         -1.3351713403        0.3217144503       -3.2641226727
 C         -1.2422878733       -0.7377006162       -4.1569688245
 C         -1.7179204331       -0.5427244394       -5.4393313108
 C         -2.2800085609        0.6723707324       -5.8289283753
 C         -2.3982228621        1.7243406998       -4.9392673321
 C         -1.9293356269        1.5478089966       -3.6466762132
 C         -1.9145808451        2.3754618556       -2.4765197715
 C         -2.4126629520        3.6231953290       -2.1423378509
 O         -3.1061543980        4.4765441687       -2.9344644383
 C         -3.4424411358        5.5360680506       -2.1444859618
 C         -4.1774258918        6.6426520823       -2.5241315003
 C         -4.4155131818        7.6071830511       -1.5595366829
 C         -3.9336370532        7.4691821982       -0.2606660691
 C         -3.1972695284        6.3633492089        0.1169746157
 C         -2.9460882843        5.3818637873       -0.8338288553
 C         -2.2606971702        4.1194811876       -0.8317043376
 C         -1.5661185075        3.3931975554        0.1377876608
 C         -1.0629802189        2.1492981541       -0.1729439825
 C         -1.2838808995        1.6335187364       -1.4512576655
 C         -2.5655355245       -0.7057411905        1.7788782941
 S         -1.8080070529       -1.4139072683        3.1793299234
 C         -3.0195262029       -0.7124669172        4.2343473962
 C         -3.0896493643       -0.8479917656        5.6066609050
 C         -4.1312927146       -0.2276434344        6.2754537972
 C         -5.0837443979        0.5163586542        5.5786662983
 C         -5.0152557143        0.6545966955        4.2108810203
 C         -3.9747754977        0.0320235512        3.5144015805
 C         -3.7004074378        0.0461762827        2.1186496173
 N         -4.4005930174        0.7296032517        1.1914594193
 C         -4.7594764714        1.0002373089       -2.4093140946
 C         -5.3941829453        1.7732426140       -3.3622966944
 H         -6.4776836307        3.5782841382       -3.7514226342
 H         -6.4367447021        4.3202050064       -1.3995214257
 H         -5.3227490791        2.9199920453        0.3124818428
 H         -0.5998049895       -2.6715712159        1.4805578821
 H          1.5634551243       -3.4328123555        0.6511305188
 H          1.2667441295       -2.8444698455       -3.7836137120
 H          2.1193540112       -4.0650977014       -5.7485278560
 H          4.3600759421       -5.0533894795       -5.7445155299
 H          5.8185025445       -4.8687489674       -3.7578024623
 H          6.8188287115       -4.4540114749       -1.2939463988
 H          7.2698528041       -3.7893287345        1.0514244252
 H          1.9548199292       -0.3076529729        0.6497256218
 H          1.4195320986        0.9929553033        2.6502104896
 H          2.8241435212        0.8697821701        4.6552359009
 H          4.8493124580       -0.5447286231        4.6865218921
 H          8.1459776495       -1.7159696384        2.0125946502
 H          9.9805407624       -2.1436319948        3.6039337335
 H          9.4809237256       -2.9732695286        5.8729227667
 H          7.1428687747       -3.3918039476        6.5410752316
 H          5.3113894177       -3.0047680509        4.9343516955
 H          1.3164855266       -0.6551228459       -2.5938606851
 H         -0.8266221054       -1.6861298351       -3.8527608115
 H         -1.6569500307       -1.3495257688       -6.1545043225
 H         -2.6364938037        0.7850478582       -6.8419278610
 H         -2.8481741558        2.6610025114       -5.2293051900
 H         -4.5489365139        6.7417446712       -3.5313931992
 H         -4.9881080267        8.4844134780       -1.8204444456
 H         -4.1419898136        8.2432875033        0.4627923446
 H         -2.8255421576        6.2576700749        1.1246516197
 H         -1.4369163754        3.8044163711        1.1267842803
 H         -0.5320539430        1.5664838647        0.5642389638
 H         -2.3472890608       -1.4225913807        6.1390637314
 H         -4.2052921779       -0.3216306391        7.3480843367
 H         -5.8877310978        0.9872234289        6.1248448870
 H         -5.7456950122        1.2247130569        3.6587564158
 H         -4.2809830879        0.0707890828       -2.6788706187
 H         -5.4120903781        1.4462567882       -4.3916318900
  108
       -177.96727121
 C         -5.9614663726        3.0008863395       -2.9919894846
 C         -5.9260190633        3.4089913516       -1.6679610874
 C         -5.3176011071        2.6141072358       -0.7160473863
 C         -4.7265414396        1.4089639163       -1.0862120845
 C         -4.0100340541        0.6216249430       -0.0836142288
 N         -3.0139262576       -0.1359098526       -0.4802421236
 C         -2.1911254531       -0.7851285114        0.3886803969
 C         -0.9506064647       -1.2915191530       -0.1000675011
 C         -0.2447642421       -2.3250241209        0.5514617694
 C          0.9567348544       -2.7808588951        0.0819388881
 C          1.5227550898       -2.2280227849       -1.0761949952
 N          2.7905552543       -2.6541860349       -1.4964812137
 C          3.0459397378       -3.3287834572       -2.6754288497
 C          2.2224748900       -3.5232198428       -3.7721752889
 C          2.7237840613       -4.2572403795       -4.8318689986
 C          4.0088807096       -4.7917735107       -4.7985003899
 C          4.8267883095       -4.6155353459       -3.6982559964
 C          4.3461041383       -3.8795131849       -2.6239484754
 C          4.8887830000       -3.5221568940       -1.3435068693
 C          6.0886799069       -3.8496290499       -0.7175424936
 C          6.3341692681       -3.3969672659        0.5606861743
 C          5.3976277858       -2.5593812981        1.1683155805
 C          4.1774334391       -2.1774580608        0.5587844106
 C          3.5345653138       -1.2678910291        1.4698480529
 C          2.4189771687       -0.4368936401        1.4078545491
 C          2.1071678808        0.3502380859        2.4971449351
 C          2.9033287602        0.3571841346        3.6401963859
 C          4.0505176778       -0.4057636592        3.7077220314
 C          4.3596580926       -1.2124713413        2.6207840641
 N          5.4751087985       -1.9924641063        2.4216508837
 C          6.5386450381       -2.1239929486        3.3282555324
 C          7.8384603072       -1.8217328876        2.9348559539
 C          8.8768622434       -1.9397171658        3.8402631120
 C          8.6276282821       -2.3494331300        5.1397197591
 C          7.3334524766       -2.6477336702        5.5328861889
 C          6.2897454572       -2.5404424320        4.6324223983
 C          3.9005911553       -2.7398090499       -0.6925308719
 C          0.8312033961       -1.2405913640       -1.7701145506
 C         -0.3714612048       -0.7571954452       -1.2896571483
 N         -0.9787699784        0.3084976862       -1.9683686647
 C         -1.3508322845        0.2966460436       -3.2917397408
 C         -1.2742600001       -0.7324218645       -4.2208129164
 C         -1.7428551419       -0.4836925976       -5.4965686314
 C         -2.2820080337        0.7541303370       -5.8443342212
 C         -2.3825076111        1.7767886221       -4.9189942865
 C         -1.9195247229        1.5470145583       -3.6327792397
 C         -1.8853299297        2.3365141284       -2.4367276258
 C         -2.3516479878        3.5848973921       -2.0610772081
 O         -3.0251647981        4.4809814750       -2.8228023132
 C         -3.3296588856        5.5240508562       -1.9986323847
 C         -4.0332840276        6.6628996488       -2.3403935290
 C         -4.2397613633        7.6033957641       -1.3451888663
 C         -3.7581669281        7.4109032336       -0.0531098406
 C         -3.0531379916        6.2729058776        0.2866887250
 C         -2.8336030568        5.3151654813       -0.6955329335
 C         -2.1824538533        4.0357397332       -0.7360475602
 C         -1.5010339032        3.2637314234        0.2069365944
 C         -1.0283576253        2.0193329922       -0.1456514206
 C         -1.2689028042        1.5483001270       -1.4378116248
 C         -2.5604772265       -0.7422564248        1.7519382345
 S         -1.7760338995       -1.4366040897        3.1441471103
 C         -2.9292002466       -0.6706269839        4.2196305837
 C         -2.9519293184       -0.7626376538        5.5971270423
 C         -3.9497982324       -0.0918489844        6.2838987514
 C         -4.9062186535        0.6584272534        5.5993581222
 C         -4.8848504362        0.7536128913        4.2263912526
 C         -3.8888347306        0.0804944468        3.5120391278
 C         -3.6624510303        0.0500454005        2.1081303575
 N         -4.3673953250        0.7357619257        1.1862918549
 C         -4.7680030453        1.0017465742       -2.4159806558
 C         -5.3893994781        1.7942585387       -3.3617167444
 H         -6.4340926140        3.6252332572       -3.7359599779
 H         -6.3663227310        4.3528505045       -1.3799226849
 H         -5.2743074242        2.9188808997        0.3187537572
 H         -0.6771873961       -2.7855647940        1.4239524517
 H          1.4827227364       -3.5699958647        0.5968981941
 H          1.2214947275       -3.1213438230       -3.7971892866
 H          2.1053184110       -4.4205969935       -5.7018560291
 H          4.3663353010       -5.3580449829       -5.6455138732
 H          5.8181025288       -5.0420560401       -3.6712995374
 H          6.8098127775       -4.4699864194       -1.2265363190
 H          7.2348511655       -3.6769069940        1.0843320013
 H          1.8177764051       -0.3790823497        0.5178196393
 H          1.2364310664        0.9878618715        2.4600603784
 H          2.6328583023        0.9883120922        4.4733385761
 H          4.6997236768       -0.3623549855        4.5690144473
 H          8.0231994020       -1.4809817451        1.9269022033
 H          9.8838514781       -1.7018705418        3.5315412170
 H          9.4402983645       -2.4351393640        5.8448657239
 H          7.1354938585       -2.9704116795        6.5441555085
 H          5.2801531162       -2.7848962699        4.9277021717
 H          1.2693225230       -0.7937949564       -2.6511909875
 H         -0.8728482681       -1.6971163234       -3.9504578102
 H         -1.6934335177       -1.2653723523       -6.2399882131
 H         -2.6337914560        0.9087228458       -6.8534579489
 H         -2.8135654693        2.7314430869       -5.1773328329
 H         -4.4047871555        6.8045903019       -3.3425031480
 H         -4.7869069046        8.5048486009       -1.5763259432
 H         -3.9416029213        8.1676640562        0.6950231784
 H         -2.6815249790        6.1246739913        1.2890356736
 H         -1.3567049504        3.6411360323        1.2073055179
 H         -0.5054059707        1.4027719010        0.5691420309
 H         -2.2065883630       -1.3424046862        6.1197661805
 H         -3.9859432955       -0.1507640265        7.3609959048
 H         -5.6750042683        1.1698066110        6.1595829947
 H         -5.6181751872        1.3292752080        3.6839410377
 H         -4.3101851392        0.0640249733       -2.6930142532
 H         -5.4192698640        1.4738008911       -4.3928817914
  108
       -177.96689647
 C         -5.6772937262        3.2992545357       -2.9788653090
 C         -5.7060182946        3.6163202662       -1.6301238864
 C         -5.2131285679        2.7221230254       -0.6995035680
 C         -4.6705853481        1.5095284155       -1.1152920428
 C         -4.0807219064        0.6094557601       -0.1229699519
 N         -3.0366158407       -0.1047098581       -0.4686733506
 C         -2.3188273313       -0.8499275498        0.4183071391
 C         -1.0326680362       -1.3069131512        0.0107665632
 C         -0.3325382243       -2.3361653759        0.6782711364
 C          0.8863879381       -2.7822449597        0.2433128860
 C          1.4786334798       -2.2270951808       -0.8991016570
 N          2.7294857089       -2.6876048784       -1.3407484357
 C          2.9064786539       -3.4079867096       -2.5064266207
 C          2.0072926179       -3.6500714396       -3.5320319381
 C          2.4377851631       -4.4209957891       -4.5963953298
 C          3.7271605434       -4.9453678503       -4.6357221941
 C          4.6207598788       -4.7208570007       -3.6056385388
 C          4.2112850634       -3.9468343692       -2.5281037875
 C          4.8407308757       -3.5299222671       -1.3077877290
 C          6.0948276193       -3.8110940818       -0.7726906330
 C          6.4434690780       -3.2855610290        0.4516150179
 C          5.5451929318       -2.4329744688        1.0949694856
 C          4.2610345095       -2.1157332573        0.5880406263
 C          3.6791233918       -1.1810754055        1.5152993456
 C          2.5228491703       -0.4058834289        1.5373642639
 C          2.3001505099        0.4390743448        2.6051639984
 C          3.2205744257        0.5554977868        3.6442826484
 C          4.3972401481       -0.1639244347        3.6300114421
 C          4.6174269347       -1.0296686593        2.5671574869
 N          5.7316747847       -1.7893136508        2.2987624415
 C          6.8915348999       -1.8347132820        3.0878828001
 C          8.1308697279       -1.5362416282        2.5296705672
 C          9.2681432825       -1.5762200536        3.3150247114
 C          9.1782481366       -1.9023961297        4.6582546805
 C          7.9443691006       -2.1936970920        5.2161728330
 C          6.8026072819       -2.1651092453        4.4366328670
 C          3.8927543618       -2.7321890384       -0.6140237470
 C          0.8127150000       -1.2207057742       -1.5901350238
 C         -0.4009622660       -0.7389365875       -1.1375658802
 N         -0.9710014175        0.3459782038       -1.8190235891
 C         -1.2619496317        0.3673487798       -3.1620280879
 C         -1.1797841562       -0.6545237489       -4.0989258565
 C         -1.5598342408       -0.3704690464       -5.3964366109
 C         -2.0160242048        0.8961667426       -5.7592540151
 C         -2.1203853212        1.9134693198       -4.8282469781
 C         -1.7482416557        1.6474711743       -3.5198146781
 C         -1.7484014087        2.4210965900       -2.3129029201
 C         -2.1693199218        3.6896025125       -1.9519858250
 O         -2.7441425383        4.6275885405       -2.7434868927
 C         -3.0366946946        5.6814004025       -1.9288099006
 C         -3.6517978292        6.8612484714       -2.3010120948
 C         -3.8608800222        7.8070538731       -1.3115055182
 C         -3.4669498979        7.5801184481        0.0044376785
 C         -2.8518864988        6.4003256883        0.3750801607
 C         -2.6322146962        5.4359687323       -0.6006424557
 C         -2.0551002506        4.1206635294       -0.6147263033
 C         -1.4801440416        3.3023254275        0.3596183528
 C         -1.0569113306        2.0355918024        0.0225561875
 C         -1.2340976958        1.5928918130       -1.2889854001
 C         -2.8809053740       -0.9808522248        1.7113904836
 S         -2.3353869037       -1.8945313578        3.0924568968
 C         -3.6652650721       -1.2980445741        4.0646202707
 C         -3.9273376938       -1.6168379213        5.3826237462
 C         -5.0410420469       -1.0559374980        5.9838663768
 C         -5.8742899286       -0.1894061228        5.2759788866
 C         -5.6136760441        0.1314294711        3.9629875576
 C         -4.4977638538       -0.4284810461        3.3342123523
 C         -4.0366213619       -0.2406498129        2.0009049345
 N         -4.6057810703        0.5751957727        1.0915603200
 C         -4.6459465647        1.1944768090       -2.4696014839
 C         -5.1560327457        2.0851143256       -3.3948618053
 H         -6.0606668280        4.0003363347       -3.7055163632
 H         -6.1071535036        4.5656760571       -1.3053051284
 H         -5.2247522541        2.9545277798        0.3547100900
 H         -0.7813030026       -2.8053212544        1.5369915142
 H          1.4016866165       -3.5698470594        0.7714484315
 H          1.0037246912       -3.2552049721       -3.4977199738
 H          1.7596421482       -4.6232596564       -5.4120177020
 H          4.0276306091       -5.5421609403       -5.4839237992
 H          5.6157008927       -5.1386419450       -3.6346776178
 H          6.7791698758       -4.4476430084       -1.3114599523
 H          7.3932439581       -3.5197244421        0.9062783447
 H          1.8155391646       -0.4396769344        0.7282601409
 H          1.4007007129        1.0361933376        2.6298532523
 H          3.0195971793        1.2328412004        4.4606755879
 H          5.1343500298       -0.0440048767        4.4094184155
 H          8.1917721766       -1.2598296553        1.4874921691
 H         10.2274048220       -1.3432960941        2.8773269987
 H         10.0676999674       -1.9279058179        5.2691695212
 H          7.8703409955       -2.4499408860        6.2625195778
 H          5.8399412241       -2.4081206728        4.8613262172
 H          1.2768129484       -0.7652508162       -2.4534396853
 H         -0.8406260781       -1.6399236474       -3.8187948744
 H         -1.5044828804       -1.1461876952       -6.1456261125
 H         -2.3000242843        1.0779719923       -6.7850654027
 H         -2.4863869868        2.8914148505       -5.0995579602
 H         -3.9544844438        7.0301310657       -3.3218934566
 H         -4.3399520393        8.7402899455       -1.5662871047
 H         -3.6481077509        8.3429941973        0.7468284961
 H         -2.5480962252        6.2258013479        1.3958551952
 H         -1.3791663268        3.6621959175        1.3716723386
 H         -0.6197736784        1.3823821188        0.7620994021
 H         -3.2773548672       -2.2866099313        5.9245360125
 H         -5.2661293613       -1.2937091059        7.0122893467
 H         -6.7379316293        0.2317149992        5.7690214040
 H         -6.2501165878        0.7972698736        3.4016633656
 H         -4.2286889990        0.2494595238       -2.7834121667
 H         -5.1373281934        1.8346614022       -4.4454115914
