  51
        -86.62581631
 O          3.0599691305        2.6636763430        0.6040514659
 C          2.5824580720        1.9945178335       -0.3286910990
 C          3.4672449055        1.6652006711       -1.5297838600
 C          3.8280403471        0.2294615608       -1.2325548294
 O          3.2243486118       -0.6821138868       -1.8488622192
 C          4.8234917088       -0.0559131584       -0.2189721706
 C          5.5154943462        0.9405956546        0.4843911972
 C          6.4643278244        0.6149822320        1.4309334268
 C          6.7675607650       -0.7156352691        1.6975100287
 C          6.1029404313       -1.7213089072        1.0249705699
 C          5.1340252889       -1.4152954812        0.0703990839
 O          4.5093850429       -2.4184119788       -0.5569701080
 C          1.2440555901        1.4643435487       -0.2991028741
 C          0.6516816901        0.7216047380       -1.3429518831
 C         -0.6337319692        0.2560230647       -1.2287056566
 C         -1.3895202065        0.5266854321       -0.0831002968
 N         -2.7092323215        0.0274454934        0.0275565856
 C         -3.7850041246        0.8936981875        0.0911323521
 C         -3.6301972870        2.2795626603        0.0094318349
 C         -4.7283481303        3.1122210126        0.0885441890
 C         -6.0045251387        2.5866122810        0.2410539669
 C         -6.1838286157        1.2162075048        0.2945466206
 C         -5.0877256446        0.3706381294        0.2137774905
 O         -5.3248909167       -0.9695439910        0.2432798890
 C         -4.2590668613       -1.8135880342        0.1677742772
 C         -4.5181615391       -3.1754565480        0.2026290390
 C         -3.4717372393       -4.0787272626        0.1599130384
 C         -2.1626353005       -3.6191250998        0.1003280021
 C         -1.8937555276       -2.2657429602        0.0625967445
 C         -2.9365443145       -1.3366070502        0.0746693830
 C         -0.8277894814        1.2825207816        0.9548172960
 C          0.4560366692        1.7407316378        0.8446453246
 H          4.3312831019        2.3240531918       -1.5416258639
 H          2.9241984779        1.7307171116       -2.4698631388
 H          5.2793784065        1.9757253486        0.3165610904
 H          6.9720353536        1.4012322801        1.9685721167
 H          7.5181810115       -0.9658643769        2.4315848401
 H          6.3171706870       -2.7618362763        1.2132703464
 H          3.8760823165       -1.9681513521       -1.1944250124
 H          1.2105189727        0.4835846907       -2.2301647096
 H         -1.0799338446       -0.3132199535       -2.0316974612
 H         -2.6420256131        2.6902445491       -0.1226337560
 H         -4.5865822880        4.1796841210        0.0260662182
 H         -6.8585679697        3.2417063698        0.3058692126
 H         -7.1630012740        0.7757883279        0.3927399652
 H         -5.5445594437       -3.4988779971        0.2684664013
 H         -3.6758939072       -5.1371831104        0.1845519362
 H         -1.3421125841       -4.3190866639        0.0866138556
 H         -0.8753397931       -1.9141958748        0.0283983667
 H         -1.4086011156        1.4735649450        1.8458260000
 H          0.9149667249        2.3088823768        1.6387803363
