  34
        -60.25522326
 C         -2.7204506416       -3.7339347248       -0.1235251381
 C         -1.3479608686       -3.6448924621       -0.2364625585
 C         -0.7203327098       -2.4089686208       -0.2100731411
 C         -1.4545065927       -1.2390391590       -0.0622326730
 C         -2.8501587432       -1.3391850775        0.0206096481
 C         -3.4710390269       -2.5745764634       -0.0022853400
 O         -3.6671186845       -0.2397700690        0.1060029995
 C         -3.0678530154        0.9930978843        0.1441160692
 C         -3.8982731452        2.0918896588        0.2650847505
 C         -3.3627459119        3.3690244875        0.3402530375
 C         -1.9927229718        3.5348615069        0.3165195468
 C         -1.1556494348        2.4361624307        0.1956769246
 C         -1.6774738202        1.1534669625        0.0800757034
 N         -0.8597699366        0.0271881543       -0.0456296165
 C          0.5303570088        0.1828944238       -0.2101466900
 C          0.9957465537        0.8930941254       -1.3486208688
 C          2.3253588427        1.0707532989       -1.5942738108
 C          3.2474220091        0.5293752392       -0.6808751906
 N          4.5777376082        0.5878097941       -0.7293082748
 S          5.1724674644       -0.1874950948        0.5465772139
 N          3.7870431189       -0.6407334103        1.2262084711
 C          2.7791579474       -0.1953739606        0.4728217881
 C          1.4056490362       -0.3563987413        0.7021415302
 H         -3.2129947875       -4.6932367435       -0.1379689888
 H         -0.7497994922       -4.5359963423       -0.3480737162
 H          0.3516010916       -2.3567643504       -0.3156444485
 H         -4.5463590490       -2.6049895114        0.0708257269
 H         -4.9629348955        1.9256542443        0.3031609594
 H         -4.0180114548        4.2207936611        0.4308526428
 H         -1.5597659652        4.5199529509        0.3973383506
 H         -0.0861625673        2.5782729950        0.1975884921
 H          0.2595941848        1.2811640887       -2.0371168171
 H          2.6809292547        1.5998404753       -2.4635245838
 H          1.0606376938       -0.8895461034        1.5734670723
