  122
  -183.657764552700        1.00000000000000      !
 C         -8.3442464943        3.8652066657       -0.1084856437
 C         -7.0298756104        4.5814426130        0.2537027252
 C         -7.3117765381        6.0404182480        0.6575525167
 C         -6.3944667572        3.8690448135        1.4311627496
 C         -7.0875441712        3.7779608252        2.6303823084
 C         -6.5491792891        3.1609009279        3.7443628845
 C         -5.2745283886        2.6258561482        3.6729938225
 C         -4.5636673535        2.7009268393        2.4949891618
 C         -5.1135205850        3.3071185077        1.3593881600
 N         -4.3813613212        3.3576570530        0.1873547629
 C         -3.0701504774        2.8078041695        0.1652478661
 C         -1.9611752268        3.6619665523        0.2275150943
 C         -0.7015083495        3.1260062163        0.1993960730
 C         -0.5071457782        1.7386016130        0.1197803925
 C         -1.6210678596        0.8678790922        0.0683095915
 C         -2.8990863365        1.4430372303        0.0845790714
 C         -1.4070349409       -0.5567386554       -0.0089115656
 C         -2.4591771893       -1.4809083442       -0.0333298727
 C         -2.2237067221       -2.8354412766       -0.1312630702
 N         -3.3152152274       -3.7445062835       -0.1689487707
 C         -4.0809303970       -3.8341154791       -1.3181015613
 C         -3.7763754958       -3.0283077049       -2.4216724590
 C         -4.5323810133       -3.0844776051       -3.5723393892
 C         -5.6060607844       -3.9545812191       -3.6504627294
 C         -5.8934922852       -4.7714201560       -2.5728267391
 C         -5.1490235031       -4.7365313605       -1.4016054302
 C         -5.4964737488       -5.6830796010       -0.2699875062
 C         -6.9457215066       -5.4143689213        0.1765718970
 C         -5.3557582969       -7.1286196268       -0.7818984543
 C         -4.5827070263       -5.4962257361        0.9244797688
 C         -4.7660874095       -6.2799822417        2.0554235420
 C         -3.9812768543       -6.1344537187        3.1843201554
 C         -2.9917609827       -5.1666209452        3.2011890052
 C         -2.7860958537       -4.3759972861        2.0915760055
 C         -3.5588287003       -4.5409783773        0.9358613545
 C         -0.9109705961       -3.3244327522       -0.1989338887
 C          0.1358426182       -2.4449199676       -0.1545744269
 C         -0.0837507251       -1.0598098100       -0.0595670183
 C          1.0373405091       -0.1774317508       -0.0104030311
 N          2.2796148436       -0.6659935264       -0.0476168969
 C          3.3235779894        0.1517364028        0.0047728238
 C          4.6368629426       -0.3428126710       -0.0224571497
 C          5.7116924111        0.5183882092        0.0189952380
 N          7.0484427024        0.0332832455       -0.0126574008
 C          7.6605621691       -0.1475799120       -1.2367466207
 C          6.8903931648       -0.1117236729       -2.4050430154
 C          7.4712416692       -0.2986625989       -3.6399722439
 C          8.8351011009       -0.5196757576       -3.7327521133
 C          9.5992970097       -0.5471227032       -2.5804708983
 C          9.0408453168       -0.3687868886       -1.3227859595
 C          9.9311572142       -0.3691925799       -0.0977586384
 C         10.8841631650        0.8362403793       -0.2008758734
 C         10.7280390219       -1.6852522304       -0.0532304634
 C          9.1358870495       -0.2279997937        1.1827330834
 C          9.7858897486       -0.2656707067        2.4079544268
 C          9.1053503776       -0.1201989785        3.6029487223
 C          7.7333409447        0.0675971276        3.5874965256
 C          7.0630381163        0.1162048171        2.3853131181
 C          7.7515251158       -0.0206188329        1.1742832816
 C          5.5128148166        1.9099498991        0.0909651203
 C          6.6379065278        2.7507306756        0.1173764692
 N          7.5778111056        3.4134795966        0.1292964904
 C          4.2156333048        2.4288058843        0.1297629081
 C          3.1159427199        1.5783829687        0.0908608810
 N          1.8640161027        2.0532100806        0.1310569342
 C          0.8302663336        1.2241603002        0.0846494932
 C         -4.8674486443        3.9677174552       -0.9544253871
 C         -4.0975667163        3.9585355514       -2.1234340893
 C         -4.5485449653        4.5691482075       -3.2733896827
 C         -5.7826676568        5.1960953666       -3.2823416614
 C         -6.5555548652        5.1867685873       -2.1359215575
 C         -6.1275633794        4.5782977744       -0.9640765486
 H         -8.1386068355        2.8336194492       -0.3887506540
 H         -8.8356934370        4.3557178769       -0.9439799186
 H         -9.0292800905        3.8617381147        0.7346525343
 H         -7.9681013585        6.0837440452        1.5221609505
 H         -7.7842649526        6.5835224357       -0.1560705327
 H         -6.3789483732        6.5416489075        0.9093222095
 H         -8.0772869993        4.2022124730        2.7044448601
 H         -7.1165860550        3.1063040923        4.6604744855
 H         -4.8302643664        2.1516647675        4.5350062663
 H         -3.5667390260        2.2917218952        2.4491575013
 H         -2.1158246711        4.7283615272        0.2915992202
 H          0.1755363284        3.7530199918        0.2407731927
 H         -3.7820823549        0.8261369469        0.0359701994
 H         -3.4841300825       -1.1501093992        0.0192329958
 H         -2.9332715100       -2.3574390022       -2.3744577590
 H         -4.2791806310       -2.4500235693       -4.4082560911
 H         -6.2078530229       -4.0052361873       -4.5446676325
 H         -6.7227953256       -5.4575620464       -2.6535503562
 H         -7.0377491844       -4.3921887163        0.5394038409
 H         -7.6381090966       -5.5487261282       -0.6496800982
 H         -7.2364829341       -6.0892192032        0.9766197726
 H         -6.0122651188       -7.3056524460       -1.6292374287
 H         -5.6061864540       -7.8422735561       -0.0020344382
 H         -4.3303363485       -7.3110575126       -1.0982988964
 H         -5.5441600434       -7.0281135850        2.0617313841
 H         -4.1475064316       -6.7643759138        4.0443485266
 H         -2.3792224617       -5.0246640210        4.0785174196
 H         -2.0207638227       -3.6163035455        2.1156182095
 H         -0.7458055477       -4.3883333548       -0.2796157239
 H          1.1578934729       -2.7877587336       -0.1976732703
 H          4.7907853003       -1.4090429917       -0.0773923434
 H          5.8288485772        0.0660167625       -2.3366532232
 H          6.8595895258       -0.2681166737       -4.5288413532
 H          9.3020730221       -0.6625600253       -4.6949075201
 H         10.6629813610       -0.7040737066       -2.6715090802
 H         10.3054304996        1.7574673586       -0.2158075592
 H         11.5588472368        0.8665695590        0.6499674691
 H         11.4752291961        0.7836392806       -1.1108689060
 H         11.3330358873       -1.8038401426       -0.9470013400
 H         11.3906672000       -1.7091434716        0.8065812849
 H         10.0448253777       -2.5297776220        0.0150276868
 H         10.8555901682       -0.4040187071        2.4376453883
 H          9.6424567638       -0.1517178170        4.5382306057
 H          7.1854492316        0.1783876265        4.5108722593
 H          5.9940266706        0.2609195841        2.3750402424
 H          4.0560264807        3.4937506270        0.1873559103
 H         -3.1388348683        3.4641054007       -2.1243539397
 H         -3.9357275595        4.5532767709       -4.1618401961
 H         -6.1444620322        5.6820895045       -4.1751245050
 H         -7.5206521933        5.6695191121       -2.1612332018
