58
 energy: -88.104154859729 gnorm: 0.000046091355 xtb: 6.7.1 (edcfbbe)
C            6.52234564560679        2.26924604958147        0.76357423971792
C            5.68201710649655        1.09200425509750        0.37528183835441
N            6.34430508735530        0.00027161483342       -0.00106565407266
C            5.68214036540296       -1.09135168813502       -0.37788743302850
C            6.52279890187148       -2.26631144444519       -0.77231107206193
C            4.29036043369020       -1.14754945086893       -0.39665925094608
C            3.71845361566843       -2.38880338444230       -0.68883921871530
N            3.32054050518688       -3.45280865764940       -0.89954826488428
C            3.51006162236180       -0.00032014941849        0.00029013293358
C            2.09059858002142       -0.00044150556454        0.00140937069689
C            1.34113358985494        0.79238616454016        0.91513676143788
C           -0.02471358128376        0.79711622547668        0.91235483738411
C           -0.74205586187291        0.00052295402475        0.00287662136249
N           -2.15313388592288        0.00087114375486        0.00265517014893
C           -2.82471786887217        1.16928218753694       -0.29155029852857
C           -2.09870004968793        2.31643170107831       -0.66148186347597
C           -2.73944273167515        3.50534434183357       -0.91829803902483
C           -4.12406471457931        3.57723792477693       -0.83162768430142
C           -4.84866311808445        2.43959094133247       -0.52647122710101
C           -4.23158707727896        1.22355548518004       -0.26422497748997
C           -5.07554490023477       -0.00176753523724       -0.00562704765698
C           -5.95538405459862       -0.25283566165657       -1.24804984408560
C           -5.96511276842932        0.24726165811478        1.23027685477530
C           -4.23094777379901       -1.22524053409923        0.25930666885417
C           -4.84716262332074       -2.44228195911641        0.51881506956984
C           -4.12211699383722       -3.57813456490731        0.82960233558337
C           -2.73818387801191       -3.50331704030936        0.92483040037965
C           -2.09829222076568       -2.31342161227596        0.67054379086261
C           -2.82440431498957       -1.16819982592231        0.29482105725303
C           -0.02608566319319       -0.79708240260623       -0.90687137458385
C            1.33972360154860       -0.79325765766170       -0.91111924992320
C            4.29028277925650        1.14751255571135        0.39545337981461
C            3.71821873994476        2.38893016680728        0.68674681418725
N            3.31993470871470        3.45286686673345        0.89699679464621
H            6.31988534885718        3.11435253808293        0.10603224939656
H            7.57223936375857        1.99890564111517        0.69107186922240
H            6.29683394685172        2.58195534283450        1.78259554586849
H            7.57224941291571       -2.01252394137775       -0.65041560283472
H            6.28329549678453       -3.13249416422334       -0.15631165718535
H            6.33497950094397       -2.53757722879388       -1.81089823706816
H            1.86479922089619        1.36611343490079        1.66358200163549
H           -0.56613285903236        1.38117990325105        1.64264941607624
H           -1.02629363832701        2.26049461923847       -0.75455546056136
H           -2.16161107176599        4.37399482829565       -1.19347952553529
H           -4.63420156822907        4.50818019458369       -1.02451474413891
H           -5.92447983184724        2.50533402546627       -0.49856238788505
H           -6.57941214463274       -1.12929140825399       -1.10497487050289
H           -5.32807520134751       -0.41373575243759       -2.12256682817437
H           -6.60076053650315        0.59860773189697       -1.43937817376180
H           -5.34459129870375        0.40940558134679        2.10940040702590
H           -6.61006426926684       -0.60557129177466        1.41674726693315
H           -6.58997080051372        1.12237131266502        1.08272281845614
H           -5.92262907199572       -2.51036354484701        0.48398563805005
H           -4.63151302110338       -4.50997250118614        1.02010392875747
H           -2.16032622749799       -4.37045769633890        1.20467535896586
H           -1.02659155103197       -2.25501461429067        0.77017428337529
H           -0.56871262854913       -1.38116873954007       -1.63624745335306
H            1.86218654330595       -1.36766829724052       -1.65986086755916
