  58
        -88.14539634
 C          6.4964761538        2.3620812515        0.4087428428
 C          5.6800147960        1.1332520646        0.1972651513
 N          6.3330873060        0.0042562645       -0.0130865434
 C          5.6831084297       -1.1279009330       -0.2156466232
 C          6.5030358543       -2.3521844360       -0.4390175914
 C          4.2763004444       -1.1785203769       -0.2165884830
 C          3.6259637397       -2.4185573261       -0.3884537941
 N          3.1387957871       -3.4500376471       -0.5102181892
 C          3.5460239994       -0.0025497486        0.0035971786
 C          2.0796473152       -0.0050078394        0.0092285571
 C          1.3776869970        0.5958720148        1.0522689417
 C         -0.0016610607        0.5889843301        1.0588688551
 C         -0.7051447252       -0.0028034265        0.0135021396
 N         -2.1178095985        0.0004197951        0.0132039520
 C         -2.7913331527        1.2027718689       -0.1620020515
 C         -2.0691369148        2.3804456666       -0.3785736142
 C         -2.7118435595        3.5889354129       -0.5454566481
 C         -4.0932740497        3.6454374685       -0.5117573888
 C         -4.8106125939        2.4778188751       -0.3324779097
 C         -4.1890654762        1.2478094715       -0.1630850943
 C         -5.0398174359        0.0019109252       -0.0137435107
 C         -5.9062268974       -0.1524775139       -1.2769263888
 C         -5.9338511946        0.1566133244        1.2299012934
 C         -4.1934300004       -1.2445921638        0.1537901659
 C         -4.8188520678       -2.4739687188        0.3125997412
 C         -4.1056725369       -3.6420240435        0.5056937816
 C         -2.7251268029       -3.5865254646        0.5649773874
 C         -2.0786252272       -2.3785683254        0.4088416189
 C         -2.7959077369       -1.2007197665        0.1775914764
 C         -0.0056974824       -0.5975543578       -1.0329470389
 C          1.3735180573       -0.6065938168       -1.0306508547
 C          4.2731992928        1.1769790491        0.2153663168
 C          3.6182427786        2.4137050201        0.3942633404
 N          3.1232609285        3.4408944050        0.5238708155
 H          6.2639035971        2.8130850638        1.3727759634
 H          6.2733416450        3.1010577395       -0.3603067656
 H          7.5511636446        2.1058383655        0.3708495284
 H          7.5566938833       -2.0897780862       -0.4181877902
 H          6.2964876965       -3.0918001884        0.3342161708
 H          6.2573941716       -2.8055575080       -1.3988469982
 H          1.9147507730        1.0446007849        1.8745593195
 H         -0.5449997033        1.0449691308        1.8724867696
 H         -0.9920028593        2.3500013543       -0.4236889123
 H         -2.1288753502        4.4833239322       -0.7053405367
 H         -4.6084594078        4.5853678911       -0.6361515804
 H         -5.8886118854        2.5310502779       -0.3285837544
 H         -6.5392794879       -1.0324705426       -1.2079645503
 H         -5.2676240650       -0.2565724943       -2.1520965923
 H         -6.5437006969        0.7154084252       -1.4194758577
 H         -5.3148322999        0.2553234884        2.1196797222
 H         -6.5783156452       -0.7087119843        1.3552061108
 H         -6.5613283614        1.0395827734        1.1491059784
 H         -5.8966367256       -2.5265912403        0.2887633715
 H         -4.6238878164       -4.5814701358        0.6207498376
 H         -2.1457257043       -4.4811650821        0.7361348306
 H         -1.0024276857       -2.3483569746        0.4734704390
 H         -0.5523864051       -1.0532534314       -1.8444582074
 H          1.9073722850       -1.0564523136       -1.8543808362
