58
 energy: -88.182885728980 gnorm: 0.000083110355 xtb: 6.7.1 (edcfbbe)
C            6.50529337993466        2.34544579981323        0.48419321298770
C            5.68560715745625        1.12628506730752        0.23417235651854
N            6.33579617499624       -0.00065455929305        0.00150374448095
C            5.68452906050146       -1.12667303763522       -0.23259815034572
C            6.50297661036736       -2.34713950201143       -0.48032324450924
C            4.27644033530623       -1.17170629362619       -0.24524094882226
C            3.62067125652101       -2.40342456616669       -0.45005767989567
N            3.12542548628033       -3.42855025134054       -0.59824644420588
C            3.54828907804673        0.00133552084506       -0.00158998729678
C            2.08022467519924        0.00208782747709       -0.00288668101249
C            1.37583931862410        0.54643245341955        1.06925497106421
C           -0.00434679381115        0.53789549138858        1.07285322086219
C           -0.70358479487416        0.00194280008126       -0.00443685811017
N           -2.12032529386453        0.00131121704178       -0.00490019317065
C           -2.79646417930043        1.20069959135209       -0.19144719778748
C           -2.07500548359613        2.37618546460901       -0.42183898943214
C           -2.71867240829104        3.58277768517274       -0.60190901906685
C           -4.10027197565918        3.63840170858317       -0.56465354516339
C           -4.81666107151582        2.47274242290404       -0.36558450399514
C           -4.19466592343063        1.24448277877889       -0.18353373435112
C           -5.04404102441162        0.00018727169230       -0.00414618665747
C           -5.92619764858623       -0.17644805861612       -1.25455636764440
C           -5.92363507669351        0.17633218548116        1.24815420187437
C           -4.19360858368582       -1.24361269910275        0.17372273469394
C           -4.81460445534575       -2.47243666212779        0.35538205613032
C           -4.09726680406462       -3.63766972019359        0.55352706924093
C           -2.71570256737741       -3.58098897728554        0.59039711520467
C           -2.07302128420795       -2.37379712334432        0.41083475694601
C           -2.79543404117815       -1.19873777386853        0.18124158374134
C           -0.00308950773914       -0.53357903468508       -1.08113569468342
C            1.37708808298185       -0.54199903698491       -1.07598667570687
C            4.27755265975767        1.17335351614901        0.24364222162322
C            3.62304280169260        2.40597383006294        0.44700509687214
N            3.12877484189657        3.43174053028139        0.59396831035664
H            6.29708677272635        2.74449096498229        1.47641089130093
H            6.25983342578623        3.12251520481411       -0.23877639519703
H            7.55918651357490        2.09460233911508        0.40790552758846
H            7.55717655726965       -2.09671420847987       -0.40695611865573
H            6.25868828929020       -3.12134153206383        0.24614757941591
H            6.29229645717115       -2.74982055295980       -1.47051558181503
H            1.91092890073064        0.95237493031071        1.91519056268225
H           -0.54954946419304        0.94971307237964        1.90870065426207
H           -0.99698698078786        2.34497544380928       -0.46454660925879
H           -2.13642073802703        4.47627866358661       -0.77319977741242
H           -4.61656661879568        4.57704878035567       -0.69909197649956
H           -5.89467111325697        2.52686603247782       -0.35503573312226
H           -6.56134135481459       -1.05272856753389       -1.15997741358645
H           -5.29915924389163       -0.29999168928274       -2.13607734801006
H           -6.56308787046471        0.69055163912517       -1.40591509658092
H           -5.29476334713105        0.29980281403280        2.12838359608978
H           -6.55997054182721       -0.69089062847753        1.40063430413937
H           -6.55911081146107        1.05254219241839        1.15509410745127
H           -5.89257889126051       -2.52733339085161        0.34535426984211
H           -4.61279103632311       -4.57679096684686        0.68760414551869
H           -2.13269020563024       -4.47412015303619        0.76103016119761
H           -0.99502165047180       -2.34183058187378        0.45334080603538
H           -0.54731780666575       -0.94540038934746       -1.91761479471103
H            1.91316531493578       -0.94785437774659       -1.92133911366908
