  63
        -97.20467850
 N          6.0324266333        2.7265644238       -0.6644352363
 C          6.2941296697        1.6154355083       -0.4733043082
 C          6.7319408398        0.3164273933       -0.2187886651
 C          8.1189403665        0.1322174199       -0.2062112312
 C          8.6787788595       -1.0677227034        0.1602964526
 C          7.8385158881       -2.1330480177        0.5444088059
 C          6.4830743709       -1.9832900228        0.5403744135
 C          5.8469826020       -0.7786071156        0.1324994606
 C          4.4407669150       -0.6796087281        0.0560994834
 C          3.5742241786       -1.5433372621        0.8049358982
 C          2.2220247902       -1.4133711856        0.7711249551
 C          1.6049542640       -0.4086256715       -0.0147281663
 N          0.2388367209       -0.2411185329       -0.0131445538
 C         -0.7094443263       -1.2468796807       -0.0388516685
 C         -0.5483432104       -2.6215401421       -0.1563887482
 C         -1.6800390063       -3.4109815332       -0.1839592818
 C         -2.9724289962       -2.8645618461       -0.1191480054
 C         -4.1462843093       -3.7425564661       -0.1408736354
 C         -4.1427030501       -4.9533053273        0.5526580187
 C         -5.2515994260       -5.7772511721        0.5375855742
 C         -6.3819531046       -5.4127750729       -0.1759001643
 C         -6.3966184728       -4.2150880873       -0.8721772176
 C         -5.2919787731       -3.3855562010       -0.8527898594
 C         -3.1286619435       -1.4801779228       -0.0523577607
 C         -2.0076875516       -0.6732255298       -0.0178619762
 C         -1.8218208777        0.7523587408        0.0206979892
 C         -2.6975999265        1.8203137989        0.0697320948
 C         -2.1887625798        3.1176425985        0.1274971022
 C         -3.0954868320        4.2693480512        0.1601986888
 C         -2.7927427736        5.4312069431       -0.5505135502
 C         -3.6493015108        6.5149282721       -0.5260592384
 C         -4.8188028706        6.4629417734        0.2150297267
 C         -5.1283236525        5.3164927925        0.9287598449
 C         -4.2781519883        4.2277890838        0.8990390664
 C         -0.7988619006        3.3141329252        0.1703131711
 C          0.0918266455        2.2608113184        0.1304698608
 C         -0.4205000991        0.9742433568        0.0209936206
 C          2.4381817841        0.4275462269       -0.7985281693
 C          3.7888752052        0.2892255253       -0.7737039339
 H          8.7479483140        0.9685903109       -0.4788776748
 H          9.7499510934       -1.1943529239        0.1647526855
 H          8.2787731185       -3.0756726795        0.8337786467
 H          5.8656639897       -2.8294361740        0.8000209393
 H          4.0077196115       -2.2665837952        1.4768420466
 H          1.6028493398       -2.0230807867        1.4125171066
 H          0.4304002485       -3.0658194826       -0.2494809212
 H         -1.5709390722       -4.4792267345       -0.2930087420
 H         -3.2727760903       -5.2345534131        1.1282085008
 H         -5.2359761651       -6.7074789913        1.0862574746
 H         -7.2465888627       -6.0591641670       -0.1899039730
 H         -7.2727669275       -3.9281319301       -1.4349576290
 H         -5.3038074216       -2.4636584898       -1.4161338739
 H         -4.1146355982       -1.0430405535       -0.0102750181
 H         -3.7635353790        1.6521640075        0.0451592580
 H         -1.8921069408        5.4712845352       -1.1457359754
 H         -3.4047067477        7.4042114784       -1.0881018758
 H         -5.4851352463        7.3121382902        0.2371015068
 H         -6.0354954901        5.2727410859        1.5134503894
 H         -4.5155623926        3.3454507165        1.4756244939
 H         -0.4169998955        4.3184395403        0.2703584911
 H          1.1530993519        2.4385510964        0.2044477530
 H          1.9773650616        1.1276904897       -1.4788164262
 H          4.3884555186        0.8878922640       -1.4379091848
