  63
  -96.8306947695000       0.222006567213247      !
 N          6.0324266333        2.7265644238       -0.6644352363
 C          6.2941296697        1.6154355083       -0.4733043082
 C          6.7319408398        0.3164273933       -0.2187886651
 C          8.1189403665        0.1322174199       -0.2062112312
 C          8.6787788595       -1.0677227034        0.1602964526
 C          7.8385158881       -2.1330480177        0.5444088059
 C          6.4830743709       -1.9832900228        0.5403744135
 C          5.8469826020       -0.7786071156        0.1324994606
 C          4.4407669150       -0.6796087281        0.0560994834
 C          3.5742241786       -1.5433372621        0.8049358982
 C          2.2220247902       -1.4133711856        0.7711249551
 C          1.6049542640       -0.4086256715       -0.0147281663
 N          0.2388367209       -0.2411185329       -0.0131445538
 C         -0.7094443263       -1.2468796807       -0.0388516685
 C         -0.5483432104       -2.6215401421       -0.1563887482
 C         -1.6800390063       -3.4109815332       -0.1839592818
 C         -2.9724289962       -2.8645618461       -0.1191480054
 C         -4.1462843093       -3.7425564661       -0.1408736354
 C         -4.1427030501       -4.9533053273        0.5526580187
 C         -5.2515994260       -5.7772511721        0.5375855742
 C         -6.3819531046       -5.4127750729       -0.1759001643
 C         -6.3966184728       -4.2150880873       -0.8721772176
 C         -5.2919787731       -3.3855562010       -0.8527898594
 C         -3.1286619435       -1.4801779228       -0.0523577607
 C         -2.0076875516       -0.6732255298       -0.0178619762
 C         -1.8218208777        0.7523587408        0.0206979892
 C         -2.6975999265        1.8203137989        0.0697320948
 C         -2.1887625798        3.1176425985        0.1274971022
 C         -3.0954868320        4.2693480512        0.1601986888
 C         -2.7927427736        5.4312069431       -0.5505135502
 C         -3.6493015108        6.5149282721       -0.5260592384
 C         -4.8188028706        6.4629417734        0.2150297267
 C         -5.1283236525        5.3164927925        0.9287598449
 C         -4.2781519883        4.2277890838        0.8990390664
 C         -0.7988619006        3.3141329252        0.1703131711
 C          0.0918266455        2.2608113184        0.1304698608
 C         -0.4205000991        0.9742433568        0.0209936206
 C          2.4381817841        0.4275462269       -0.7985281693
 C          3.7888752052        0.2892255253       -0.7737039339
 H          8.7479483140        0.9685903109       -0.4788776748
 H          9.7499510934       -1.1943529239        0.1647526855
 H          8.2787731185       -3.0756726795        0.8337786467
 H          5.8656639897       -2.8294361740        0.8000209393
 H          4.0077196115       -2.2665837952        1.4768420466
 H          1.6028493398       -2.0230807867        1.4125171066
 H          0.4304002485       -3.0658194826       -0.2494809212
 H         -1.5709390722       -4.4792267345       -0.2930087420
 H         -3.2727760903       -5.2345534131        1.1282085008
 H         -5.2359761651       -6.7074789913        1.0862574746
 H         -7.2465888627       -6.0591641670       -0.1899039730
 H         -7.2727669275       -3.9281319301       -1.4349576290
 H         -5.3038074216       -2.4636584898       -1.4161338739
 H         -4.1146355982       -1.0430405535       -0.0102750181
 H         -3.7635353790        1.6521640075        0.0451592580
 H         -1.8921069408        5.4712845352       -1.1457359754
 H         -3.4047067477        7.4042114784       -1.0881018758
 H         -5.4851352463        7.3121382902        0.2371015068
 H         -6.0354954901        5.2727410859        1.5134503894
 H         -4.5155623926        3.3454507165        1.4756244939
 H         -0.4169998955        4.3184395403        0.2703584911
 H          1.1530993519        2.4385510964        0.2044477530
 H          1.9773650616        1.1276904897       -1.4788164262
 H          4.3884555186        0.8878922640       -1.4379091848
  63
  -96.8306427901000       0.210125008154071      !
 N          6.2031913204        2.6684714051       -0.6745279829
 C          6.4064803250        1.5389634678       -0.5265732837
 C          6.7707474538        0.2090670891       -0.3213374608
 C          8.1386037528       -0.0699832683       -0.4196807958
 C          8.6396965939       -1.3138122789       -0.1207932960
 C          7.7588679674       -2.3279971503        0.3087843175
 C          6.4212484416       -2.0850863400        0.4146589492
 C          5.8409952281       -0.8308465689        0.0784568490
 C          4.4411945781       -0.6468986941        0.1019234986
 C          3.5797967109       -1.4805652323        0.8899298228
 C          2.2307517539       -1.3202637585        0.8980230116
 C          1.6111093506       -0.3077744609        0.1244083583
 N          0.2431788836       -0.1555433133        0.1199942688
 C         -0.6849113590       -1.1799555907        0.0660217289
 C         -0.4936843264       -2.5496176386       -0.0606567137
 C         -1.6084885529       -3.3597579875       -0.1399093219
 C         -2.9120994308       -2.8394165935       -0.1048307187
 C         -4.0688749467       -3.7363364557       -0.1896162209
 C         -5.2085017654       -3.4995330844        0.5796790470
 C         -6.2981762682       -4.3453259873        0.5033285302
 C         -6.2745680117       -5.4377267190       -0.3484100749
 C         -5.1509025228       -5.6804447436       -1.1216986901
 C         -4.0564898168       -4.8411364317       -1.0413261062
 C         -3.0978323245       -1.4600747907       -0.0135439992
 C         -1.9940563164       -0.6319289373        0.0570770915
 C         -1.8367588207        0.7966888467        0.1031282357
 C         -2.7350467974        1.8462294672        0.1291396424
 C         -2.2548656426        3.1537825381        0.2013554663
 C         -3.1881512642        4.2844781231        0.2023908152
 C         -4.3931279479        4.2157443685        0.9019071610
 C         -5.2722297080        5.2815318555        0.8968895896
 C         -4.9697213799        6.4318351510        0.1867370682
 C         -3.7778155320        6.5111383313       -0.5145819221
 C         -2.8924814122        5.4506372201       -0.5039451021
 C         -0.8708053889        3.3781678050        0.2843919770
 C          0.0419712190        2.3429964924        0.2685885267
 C         -0.4403149986        1.0461798256        0.1427229515
 C          2.4415558047        0.5346891717       -0.6557021030
 C          3.7894307238        0.3668287869       -0.6721506480
 H          8.8014998793        0.7264735363       -0.7286979602
 H          9.6964612330       -1.5135928906       -0.2036123225
 H          8.1525961586       -3.3049567489        0.5459631972
 H          5.7676255506       -2.8924508107        0.7068177793
 H          4.0191076874       -2.2090454571        1.5525781554
 H          1.6177026612       -1.9138627619        1.5603314727
 H          0.4956409021       -2.9759051978       -0.1168065708
 H         -1.4748565636       -4.4278496703       -0.2176040123
 H         -5.2261303203       -2.6605473003        1.2602671552
 H         -7.1699017847       -4.1532534260        1.1114672471
 H         -7.1275396087       -6.0966857751       -0.4092978692
 H         -5.1283387534       -6.5280599502       -1.7908086475
 H         -3.1913697033       -5.0266379020       -1.6609732266
 H         -4.0923841816       -1.0411028881       -0.0359535726
 H         -3.7960075176        1.6561403611        0.0716919846
 H         -4.6268303581        3.3300226122        1.4746245774
 H         -6.1973155270        5.2163122877        1.4502810637
 H         -5.6594741655        7.2623516921        0.1797792889
 H         -3.5386921112        7.4035174418       -1.0737938190
 H         -1.9742668580        5.5114699351       -1.0692562728
 H         -0.5125747009        4.3900293052        0.3957166755
 H          1.0969718963        2.5421271488        0.3732715360
 H          1.9792249820        1.2629735967       -1.3046724279
 H          4.3831067854        0.9739050665       -1.3336939097
  63
  -96.8303869059000       0.160280802092490      !
 N          5.9118239431        2.7638656192       -0.6572110302
 C          6.2155988934        1.6664050151       -0.4499690460
 C          6.6977128985        0.3887640624       -0.1685799318
 C          8.0890570848        0.2655705582       -0.0868195589
 C          8.6815291790       -0.9080251668        0.3120527025
 C          7.8707080643       -2.0088988719        0.6570784641
 C          6.5118745959       -1.9184039959        0.5867373932
 C          5.8453904089       -0.7425533407        0.1458959715
 C          4.4407272793       -0.6965563029        0.0126807348
 C          3.5757184623       -1.5812198038        0.7383757600
 C          2.2222470773       -1.4723986195        0.6810729468
 C          1.6043121393       -0.4726868884       -0.1108231180
 N          0.2392806112       -0.2970865896       -0.1044839086
 C         -0.7210478963       -1.2911862189       -0.1125432804
 C         -0.5787847497       -2.6685800756       -0.2238099187
 C         -1.7203242566       -3.4442532585       -0.2245122547
 C         -3.0045276098       -2.8813829601       -0.1401184699
 C         -4.1895507605       -3.7444838994       -0.1260596712
 C         -4.1889191780       -4.9412963987        0.5911312903
 C         -5.3094636911       -5.7491175993        0.6146585657
 C         -6.4482856970       -5.3827284449       -0.0841409201
 C         -6.4597693144       -4.1992729904       -0.8044155329
 C         -5.3436971204       -3.3851385417       -0.8227818094
 C         -3.1430060512       -1.4947709524       -0.0826860540
 C         -2.0119029606       -0.7015004695       -0.0728339541
 C         -1.8083119601        0.7218089537       -0.0382441134
 C         -2.6696937020        1.8001662637        0.0344630850
 C         -2.1436673287        3.0905951522        0.0942535274
 C         -3.0338999473        4.2531536919        0.1680958388
 C         -4.1968267467        4.2133823655        0.9377518016
 C         -5.0287500907        5.3138176197        1.0139311030
 C         -4.7204610194        6.4707673408        0.3168135298
 C         -3.5710558575        6.5209082757       -0.4552160224
 C         -2.7326392849        5.4251371923       -0.5263790472
 C         -0.7510024626        3.2698496800        0.1084621574
 C          0.1255775809        2.2060068489        0.0442458811
 C         -0.4047942561        0.9264941564       -0.0607899464
 C          2.4372128690        0.3627826130       -0.8960438509
 C          3.7889412608        0.2456053938       -0.8474217521
 H          8.6937475894        1.1279945129       -0.3318667867
 H          9.7555171497       -0.9870342455        0.3716981017
 H          8.3370584808       -2.9308300371        0.9708773567
 H          5.9190134576       -2.7896068300        0.8195089244
 H          4.0089556304       -2.3009824180        1.4142302631
 H          1.6018357352       -2.0934411537        1.3101385293
 H          0.3927718712       -3.1253321723       -0.3311022652
 H         -1.6268474659       -4.5147146440       -0.3263559464
 H         -3.3116114570       -5.2232042268        1.1550703209
 H         -5.2962091818       -6.6680905102        1.1820921483
 H         -7.3222384016       -6.0164180024       -0.0677457286
 H         -7.3426606121       -3.9113414554       -1.3560413466
 H         -5.3533942383       -2.4744825075       -1.4040489932
 H         -4.1228587776       -1.0456160871       -0.0262789245
 H         -3.7378823385        1.6452389917        0.0302412254
 H         -4.4320695346        3.3226061251        1.5021160693
 H         -5.9203781530        5.2708346618        1.6221100067
 H         -5.3722173860        7.3294800890        0.3756597595
 H         -3.3278246748        7.4184713175       -1.0045709548
 H         -1.8479812438        5.4646429849       -1.1450976989
 H         -0.3543509174        4.2684379705        0.2076563661
 H          1.1900661995        2.3706477326        0.0984925334
 H          1.9759876250        1.0465600645       -1.5926625108
 H          4.3914129017        0.8424716713       -1.5107933557
  63
  -96.8303346992000       0.151666257039376      !
 N          5.8788470010        2.7651647260       -0.7057259315
 C          6.1954564470        1.6729616155       -0.4903991295
 C          6.6895137965        0.4024532356       -0.1972846410
 C          8.0816663099        0.2920936670       -0.1114503710
 C          8.6830258970       -0.8720289715        0.3019488536
 C          7.8806696324       -1.9753794941        0.6590660273
 C          6.5211904308       -1.8975600601        0.5841310253
 C          5.8463241058       -0.7332268671        0.1261120067
 C          4.4420066868       -0.7004661281       -0.0143494040
 C          3.5799227285       -1.5811897576        0.7195508732
 C          2.2260395967       -1.4770263608        0.6609447901
 C          1.6055797465       -0.4872560214       -0.1414025166
 N          0.2410549519       -0.3086250654       -0.1302367001
 C         -0.7219394886       -1.2998893222       -0.1180547376
 C         -0.5846144614       -2.6787027813       -0.2181397062
 C         -1.7281328218       -3.4511909753       -0.1983577908
 C         -3.0098080449       -2.8839929575       -0.1036337347
 C         -4.1971847606       -3.7430081744       -0.0650959387
 C         -5.3606376577       -3.3853595423       -0.7472434423
 C         -6.4794953761       -4.1947088809       -0.7045322157
 C         -6.4616704992       -5.3716690280        0.0262519680
 C         -5.3134580547       -5.7366664885        0.7103635708
 C         -4.1902628876       -4.9335413996        0.6625675262
 C         -3.1438216588       -1.4964611590       -0.0582038180
 C         -2.0106437509       -0.7063182221       -0.0688316925
 C         -1.8031184808        0.7168602188       -0.0556143652
 C         -2.6608794659        1.7983186304        0.0112134059
 C         -2.1304688319        3.0873282747        0.0680337994
 C         -3.0193568935        4.2501368615        0.1536362730
 C         -2.7034695050        5.3303472406        0.9780426341
 C         -3.5449910693        6.4229829195        1.0601731147
 C         -4.7127873151        6.4615969883        0.3155876756
 C         -5.0360855143        5.3961517631       -0.5089529363
 C         -4.2008001836        4.2983285179       -0.5865324566
 C         -0.7375947755        3.2624602193        0.0694879099
 C          0.1354503318        2.1961708916       -0.0053517147
 C         -0.3992767627        0.9174425250       -0.0940306965
 C          2.4357629082        0.3386147898       -0.9395903413
 C          3.7876842069        0.2263560443       -0.8890540285
 H          8.6795691722        1.1568916146       -0.3646067044
 H          9.7575697608       -0.9414084343        0.3645100784
 H          8.3541240849       -2.8893691920        0.9853416459
 H          5.9350591157       -2.7707581061        0.8262658560
 H          4.0153779001       -2.2923709396        1.4030341515
 H          1.6073800807       -2.0929050279        1.2967827623
 H          0.3846074183       -3.1388010554       -0.3323874775
 H         -1.6386023545       -4.5228424143       -0.2908368935
 H         -5.3759192057       -2.4798080862       -1.3363045117
 H         -7.3697502601       -3.9080046113       -1.2448822693
 H         -7.3379134838       -6.0014313788        0.0620414773
 H         -5.2951190816       -6.6506017201        1.2857974078
 H         -3.3056086948       -5.2140488473        1.2155830038
 H         -4.1215710111       -1.0439506436        0.0069419614
 H         -3.7283488860        1.6452248820        0.0581305492
 H         -1.8054672900        5.2981496077        1.5775754017
 H         -3.2902703403        7.2478368995        1.7092185477
 H         -5.3678465008        7.3176077595        0.3781639961
 H         -5.9426782892        5.4228837360       -1.0954523849
 H         -4.4486884808        3.4800377005       -1.2470154583
 H         -0.3364650868        4.2629676600        0.1173115079
 H          1.2010031010        2.3600232245        0.0233158666
 H          1.9724444699        1.0107803751       -1.6460439312
 H          4.3885499951        0.8147496034       -1.5613647163
  63
  -96.8303197799000       0.149290624044852      !
 N          6.0861693978        0.8218148415       -2.9277676602
 C          6.3163228561        0.3723128717       -1.8863302250
 C          6.7363863924       -0.1862796272       -0.6792583583
 C          8.1217008319       -0.3433754204       -0.5547357775
 C          8.6796825533       -0.9921933844        0.5198832612
 C          7.8347184772       -1.5195332443        1.5177298426
 C          6.4817376863       -1.3821983364        1.4241155476
 C          5.8471575459       -0.6951484213        0.3503710868
 C          4.4467200513       -0.5180237524        0.3235212175
 C          3.5588665171       -1.3442006646        1.0913411765
 C          2.2087444992       -1.2094107519        1.0236616238
 C          1.6146025662       -0.1958856384        0.2315822048
 N          0.2450312853       -0.0613915276        0.1673489217
 C         -0.6631680897       -1.0977250350        0.0514055445
 C         -0.4439132259       -2.4606597665       -0.1040516319
 C         -1.5418563101       -3.2873909152       -0.2269129418
 C         -2.8550610865       -2.7895393345       -0.2217079161
 C         -3.9909082524       -3.7082099282       -0.3457239556
 C         -3.9833380281       -4.9406960227        0.3081331934
 C         -5.0553121497       -5.8049038903        0.1949590027
 C         -6.1510195963       -5.4592779950       -0.5791966905
 C         -6.1691843684       -4.2396935211       -1.2362753812
 C         -5.1022311680       -3.3698793245       -1.1183800438
 C         -3.0666858415       -1.4149957354       -0.1163795131
 C         -1.9801081262       -0.5716165983        0.0148280315
 C         -1.8493287554        0.8572603177        0.1153671743
 C         -2.7668974427        1.8893990096        0.1557636242
 C         -2.3130805692        3.2008937656        0.2939707159
 C         -3.2664377324        4.3143616346        0.3308096670
 C         -4.4784437161        4.1917289026        1.0107675781
 C         -5.3737233415        5.2432915023        1.0495379262
 C         -5.0801290021        6.4331189603        0.4033400134
 C         -3.8819749561        6.5654718199       -0.2795922058
 C         -2.9807216927        5.5186988758       -0.3127095331
 C         -0.9361339096        3.4456828059        0.4193040191
 C         -0.0047791283        2.4276914174        0.3884621368
 C         -0.4593999411        1.1279750269        0.2044259097
 C          2.4711225409        0.6697913491       -0.4923538713
 C          3.8189719741        0.5006434034       -0.4654847168
 H          8.7508950021        0.0490769189       -1.3419492697
 H          9.7494979488       -1.1028016769        0.5998675023
 H          8.2701996818       -2.0235772637        2.3676436262
 H          5.8694408233       -1.7560527330        2.2297875144
 H          3.9672208566       -2.1203517323        1.7183465817
 H          1.5702815342       -1.8368270576        1.6282153891
 H          0.5546020798       -2.8660412073       -0.1534062822
 H         -1.3869389908       -4.3464570565       -0.3656784987
 H         -3.1408567692       -5.2086577995        0.9291433997
 H         -5.0372213158       -6.7524832588        0.7131868194
 H         -6.9861530524       -6.1373319254       -0.6706967211
 H         -7.0182019365       -3.9672279820       -1.8458595961
 H         -5.1142885404       -2.4304379560       -1.6520237135
 H         -4.0689151566       -1.0143245781       -0.1205967496
 H         -3.8224923068        1.6834189340        0.0645613137
 H         -4.7044829335        3.2746827672        1.5355048914
 H         -6.3034371611        5.1364629532        1.5891127792
 H         -5.7811030231        7.2537344120        0.4329741669
 H         -3.6498779720        7.4891421595       -0.7892169174
 H         -2.0565909441        5.6220707186       -0.8629029518
 H         -0.5996427923        4.4588327200        0.5779504708
 H          1.0434236620        2.6412814352        0.5270677955
 H          2.0350465870        1.4276563283       -1.1248931917
 H          4.4393117785        1.1644837522       -1.0413956298
  63
  -96.8298667458000       9.243415521365018E-002 !
 N          6.2416596953        0.9216449040       -2.8944382746
 C          6.4149829926        0.4824587935       -1.8377749031
 C          6.7722726328       -0.0494387832       -0.5991034604
 C          8.1507366795       -0.0996437254       -0.3601883616
 C          8.6672851553       -0.7038586067        0.7601690736
 C          7.7863830648       -1.2976175040        1.6871619467
 C          6.4392670513       -1.2647401667        1.4820642626
 C          5.8426635079       -0.6252416829        0.3575733809
 C          4.4391869547       -0.5410219751        0.2315177898
 C          3.5552358041       -1.4098607559        0.9567069203
 C          2.2035332544       -1.3135785379        0.8586658496
 C          1.6010136313       -0.3051270275        0.0668837041
 N          0.2318643077       -0.1577033394        0.0248121974
 C         -0.6989284378       -1.1762058107       -0.0587378319
 C         -0.5111967354       -2.5430779460       -0.2216362386
 C         -1.6284111269       -3.3493287613       -0.2989012677
 C         -2.9306074831       -2.8266635327       -0.2408604737
 C         -4.0883122204       -3.7240415835       -0.3089318856
 C         -4.0794916657       -4.9460970498        0.3641647654
 C         -5.1732106857       -5.7885324154        0.3089616590
 C         -6.2919604283       -5.4315616576       -0.4263187787
 C         -6.3109873210       -4.2227476413       -1.1030534987
 C         -5.2223468112       -3.3740154814       -1.0421783644
 C         -3.1126483868       -1.4482558025       -0.1313743414
 C         -2.0064204446       -0.6250114533       -0.0443646014
 C         -1.8452631991        0.8011280791        0.0544972043
 C         -2.7397068381        1.8512815033        0.1382773084
 C         -2.2540266886        3.1524765396        0.2655541453
 C         -3.1794320788        4.2868003320        0.3493844372
 C         -2.8920703076        5.4876948648       -0.2998979966
 C         -3.7635490957        6.5568343572       -0.2204613170
 C         -4.9327685249        6.4503284551        0.5153043649
 C         -5.2275090170        5.2640199526        1.1674727912
 C         -4.3622747605        4.1901374004        1.0826328336
 C         -0.8687759078        3.3696525101        0.3363497097
 C          0.0397415786        2.3336925671        0.2636582413
 C         -0.4483544902        1.0447020344        0.0910910902
 C          2.4502765116        0.5619740154       -0.6638356093
 C          3.8013125790        0.4321637207       -0.6054294347
 H          8.8102340405        0.3426492286       -1.0943977325
 H          9.7321036671       -0.7291864209        0.9294594233
 H          8.1877558066       -1.7676474126        2.5726529191
 H          5.7941738876       -1.6862703842        2.2368741783
 H          3.9706589533       -2.1829744317        1.5828035303
 H          1.5702736810       -1.9656292751        1.4419734815
 H          0.4771281559       -2.9666839831       -0.3097149900
 H         -1.4997576455       -4.4115415857       -0.4409377235
 H         -3.2181495458       -5.2216163994        0.9553286795
 H         -5.1546870257       -6.7271048630        0.8431935980
 H         -7.1446611252       -6.0922638900       -0.4717579936
 H         -7.1780664144       -3.9420156296       -1.6826914298
 H         -5.2362568783       -2.4428166061       -1.5899080639
 H         -4.1070587587       -1.0298693860       -0.0960952955
 H         -3.8022455369        1.6671617263        0.0906323148
 H         -1.9912923500        5.5710182586       -0.8906893419
 H         -3.5310077688        7.4773202480       -0.7354910228
 H         -5.6106165194        7.2881016796        0.5806001046
 H         -6.1344358831        5.1773757441        1.7476645881
 H         -4.5882462667        3.2752366086        1.6111706643
 H         -0.5058552609        4.3748719694        0.4871464577
 H          1.0966268034        2.5250220266        0.3627565444
 H          2.0060442129        1.2920456292       -1.3232046460
 H          4.4140380382        1.0955500662       -1.1893621785
  63
  -96.8280962826000       1.419658624231432E-002 !
 N          5.3501027765        2.8507490084       -0.7711408144
 C          5.8089721304        1.8373434334       -0.4513960684
 C          6.4610572727        0.6850467634       -0.0131846750
 C          7.8147248842        0.8286224898        0.3075879309
 C          8.5219429885       -0.1937229177        0.8932753441
 C          7.8682545348       -1.4083390241        1.1864753180
 C          6.5498432259       -1.5791330044        0.8820171011
 C          5.7792420412       -0.5707007645        0.2417951716
 C          4.4278940987       -0.7648762963       -0.1091432374
 C          3.5879654869       -1.7275697499        0.5459139372
 C          2.2367900528       -1.7111765796        0.3998554476
 C          1.6102857897       -0.7455020389       -0.4292949753
 N          0.2506658557       -0.5347125528       -0.3949426388
 C         -0.7539816858       -1.4792320806       -0.3229324215
 C         -0.6877136523       -2.8631821575       -0.4265328624
 C         -1.8645582014       -3.5802341050       -0.3455302893
 C         -3.1074178268       -2.9530709380       -0.1636652776
 C         -4.3329655818       -3.7501593099       -0.0444898565
 C         -4.5504384815       -4.8645261902       -0.8541516525
 C         -5.7113881936       -5.6046420473       -0.7344035070
 C         -6.6701488425       -5.2530553170        0.2019228564
 C         -6.4630914970       -4.1508066799        1.0153896598
 C         -5.3085310077       -3.4025184898        0.8903988341
 C         -3.1726945798       -1.5612137083       -0.1030969255
 C         -2.0081166033       -0.8249712761       -0.1973402750
 C         -1.7335774606        0.5875791357       -0.1960507025
 C         -2.5292027140        1.7089547562       -0.0506394516
 C         -1.9318218229        2.9688763372       -0.0278071648
 C         -2.7419226796        4.1784916671        0.1490747886
 C         -3.8055221882        4.1956857121        1.0509027429
 C         -4.5477861208        5.3455061191        1.2410956367
 C         -4.2484609540        6.4944206369        0.5271744633
 C         -3.1999718167        6.4866041865       -0.3784665697
 C         -2.4495274487        5.3413493781       -0.5633324551
 C         -0.5367149737        3.0772533003       -0.1338592526
 C          0.2753970005        1.9702736378       -0.2675685777
 C         -0.3285820878        0.7208030390       -0.3234061699
 C          2.4376991110        0.0699514816       -1.2422615570
 C          3.7865810734        0.0412905935       -1.1076324171
 H          8.2917068403        1.7771760611        0.1019600886
 H          9.5643152279       -0.0669413718        1.1398398168
 H          8.4255298832       -2.2083337018        1.6506229697
 H          6.0850217659       -2.5315896724        1.0857640115
 H          4.0264780840       -2.4197243387        1.2465042367
 H          1.6197094133       -2.3722444456        0.9896807181
 H          0.2526845168       -3.3693145853       -0.5810089199
 H         -1.8286356575       -4.6575169210       -0.4040253170
 H         -3.8154863185       -5.1334319584       -1.5990135486
 H         -5.8706067818       -6.4598305831       -1.3747224112
 H         -7.5744137382       -5.8351881365        0.2975281323
 H         -7.2042922053       -3.8748953172        1.7511499668
 H         -5.1441363725       -2.5543338816        1.5393869397
 H         -4.1268434532       -1.0641526472       -0.0147882103
 H         -3.6008099095        1.6110120748        0.0344456899
 H         -4.0284348411        3.3096098505        1.6276203676
 H         -5.3601161200        5.3478852283        1.9529908546
 H         -4.8287124389        7.3924690089        0.6770310739
 H         -2.9654930720        7.3778858892       -0.9416671269
 H         -1.6423072309        5.3363597763       -1.2812539679
 H         -0.0820482734        4.0535454115       -0.0687281706
 H          1.3476438433        2.0797643875       -0.2986679156
 H          1.9754419960        0.6698762511       -2.0121033941
 H          4.4005270960        0.6088355131       -1.7867462096
