  112
       -173.61797303
 N        -12.6619607359       -3.2023043571        0.0585347582
 C        -11.5612303750       -2.8799934123        0.0552340918
 C        -10.2072864622       -2.4786848788        0.0509238516
 C         -9.2402947030       -3.2761651467       -0.5670462917
 C         -7.9248515129       -2.8722119405       -0.5733032683
 C         -7.5410164140       -1.6681292584        0.0281548546
 C         -6.1324274222       -1.3252815461       -0.0089296030
 N         -5.1922006051       -2.2385850332       -0.0694505604
 C         -4.0141862610       -1.5692696242       -0.0591983325
 C         -2.7008020001       -2.1144065917       -0.0763777193
 C         -2.4836942301       -3.4957881851       -0.1124873913
 C         -1.2100919229       -4.0013232018       -0.1064945155
 C         -0.1105506693       -3.1324615401       -0.0667817535
 C          1.2586576239       -3.6623675924       -0.0602335548
 C          1.5877473733       -4.7887106620        0.6924093146
 C          2.8757646931       -5.2797168682        0.7137931928
 C          3.8799567419       -4.6658363222       -0.0356582569
 N          5.1862439233       -5.1629856657       -0.0200170929
 C          5.4070711042       -6.5437884981        0.0451582177
 C          4.5711690530       -7.4262380394       -0.6388272169
 C          4.7903474175       -8.7881314977       -0.5688330848
 C          5.8459262215       -9.2923483678        0.1731070949
 C          6.6813849381       -8.4200188245        0.8513368199
 C          6.4653658873       -7.0569506348        0.7946691062
 C          6.2720514861       -4.2821539524       -0.0706723276
 C          6.2168060707       -3.0512051248        0.5833980679
 C          7.2888541217       -2.1823568276        0.5246851688
 C          8.4342146099       -2.5263132111       -0.1745365878
 C          8.4968868631       -3.7498471117       -0.8210644362
 C          7.4262906497       -4.6213619995       -0.7767126272
 C          3.5539480134       -3.5460714328       -0.8016003871
 C          2.2672527343       -3.0517624513       -0.8046091030
 C         -0.3282672449       -1.7657361704       -0.0334585913
 C         -1.6139385231       -1.2124652337       -0.0403196568
 C         -1.8527777291        0.2221964104       -0.0292649344
 C         -0.7951348353        1.1362302283       -0.0238407962
 C         -0.9858674720        2.5067902036       -0.0543747162
 C          0.1641678152        3.4167712666       -0.0289490284
 C          1.2709179026        3.1441430198        0.7748326117
 C          2.3577360871        3.9907417355        0.8022194767
 C          2.3808916069        5.1391047503        0.0094952031
 N          3.4884994635        5.9897216725        0.0217066766
 C          3.3109420256        7.3734271386       -0.0921961573
 C          4.2159116259        8.1460439308       -0.8196015669
 C          4.0370902379        9.5116498524       -0.9252627960
 C          2.9547205534       10.1275852938       -0.3184515702
 C          2.0510726266        9.3642605991        0.4025876501
 C          2.2258093440        7.9993485849        0.5213158082
 C          4.7773192882        5.4575030654        0.1483269529
 C          5.1072365542        4.2496011540       -0.4660872306
 C          6.3774663419        3.7240489360       -0.3316484790
 C          7.3401002890        4.3945914122        0.4049245508
 C          7.0197237069        5.5979706409        1.0115832516
 C          5.7493471917        6.1268192120        0.8913106240
 C          1.2761019355        5.4179738393       -0.7963369808
 C          0.1864259248        4.5738207918       -0.8064916333
 C         -2.2942643739        2.9993075060       -0.1214503835
 C         -3.3593113689        2.1363250466       -0.1153905680
 C         -3.1743587613        0.7477398651       -0.0444200015
 C         -4.2413368364       -0.1923527712       -0.0080365169
 N         -5.6088113824       -0.0500490120        0.0346606484
 C         -6.3619519347        1.1419620874        0.0573318838
 C         -7.1467601947        1.4777402711       -1.0394180732
 C         -7.9094462304        2.6314583119       -1.0074673932
 C         -7.8905494174        3.4482836767        0.1107208784
 C         -7.1070682161        3.1120233487        1.2034742247
 C         -6.3435921705        1.9593435114        1.1838124474
 C         -8.5095869278       -0.8910190436        0.6670418980
 C         -9.8298627399       -1.2888692118        0.6748761685
 H         -9.5344814934       -4.2031611924       -1.0369173650
 H         -7.1624304655       -3.4753730673       -1.0404346746
 H         -3.3471933100       -4.1419716719       -0.1437752623
 H         -1.0453945729       -5.0676555666       -0.1520734675
 H          0.8295268737       -5.2662050526        1.2955430727
 H          3.1169850751       -6.1416856482        1.3186247933
 H          3.7535327836       -7.0350585646       -1.2265150154
 H          4.1368731977       -9.4600878845       -1.1056861445
 H          6.0162659697      -10.3571099514        0.2222617262
 H          7.5038028879       -8.8041040153        1.4368812891
 H          7.1125043393       -6.3796471806        1.3326882117
 H          5.3297882485       -2.7848451610        1.1394480539
 H          7.2322272208       -1.2328492721        1.0368549376
 H          9.2716662011       -1.8463883281       -0.2150093985
 H          9.3839268254       -4.0252994519       -1.3725477314
 H          7.4747480937       -5.5701022885       -1.2909774429
 H          4.3183208708       -3.0710440663       -1.3992596115
 H          2.0314153176       -2.1963143979       -1.4208459947
 H          0.5379608256       -1.1257456869        0.0190657665
 H          0.2205604473        0.7758155794       -0.0196448952
 H          1.2651335507        2.2718928472        1.4120829324
 H          3.1986210306        3.7717535323        1.4439738458
 H          5.0555067453        7.6672393108       -1.3021282111
 H          4.7440561624       10.0981797481       -1.4936203012
 H          2.8167050189       11.1945079708       -0.4066229868
 H          1.2074120543        9.8363094874        0.8845948184
 H          1.5259919783        7.4074711493        1.0932540717
 H          4.3619568495        3.7301480322       -1.0505855553
 H          6.6192399254        2.7879942002       -0.8135056633
 H          8.3328268874        3.9827732545        0.5051044537
 H          7.7625586691        6.1257226627        1.5914990467
 H          5.4994996919        7.0600119098        1.3746220975
 H          1.2842987964        6.2989937065       -1.4213804624
 H         -0.6480793505        4.7970016272       -1.4549598521
 H         -2.4666161074        4.0647517751       -0.1563653199
 H         -4.3586502443        2.5370513871       -0.1747462089
 H         -7.1544053232        0.8320757566       -1.9051222485
 H         -8.5184702016        2.8926484111       -1.8595247510
 H         -8.4866322309        4.3478179578        0.1318469155
 H         -7.0923349657        3.7473916007        2.0761269990
 H         -5.7293799805        1.6858618906        2.0294717513
 H         -8.2347220025        0.0168037891        1.1805970560
 H        -10.5769790174       -0.6855082584        1.1694625813
