117
 energy: -177.034365230634 gnorm: 0.000096343763 xtb: 6.7.1 (edcfbbe)
C           -8.49923314169181       -7.10554666746547        3.11304926384667
C           -7.41044889937238       -6.61191540345417        2.20747476713347
C           -6.67151525404320       -5.48236342656110        2.57745739123544
C           -5.66151277353720       -4.97315878460077        1.78717253634567
C           -5.39641834623127       -5.61384323814890        0.58489869916786
C           -6.10868500451896       -6.77369153586523        0.20573081481019
C           -7.11963983570451       -7.26388541762068        1.02119508576332
C           -5.54161321073667       -7.20815203795515       -1.04119741671835
C           -5.80748954118975       -8.26357105702056       -1.90280846259465
C           -5.05012145930912       -8.38692089966531       -3.05161675919915
C           -4.04326410155906       -7.47160450114487       -3.35187598620708
C           -3.76021022445082       -6.41124097154491       -2.51252833505498
C           -4.51016840319002       -6.29101499296927       -1.35161974374452
N           -4.44551037940150       -5.32759765689716       -0.36932969691087
C           -3.54953378490508       -4.24366089148944       -0.34677665512573
C           -2.18282592695302       -4.49963680856767       -0.26912389376496
C           -1.27922306224187       -3.46016643232558       -0.23697854085584
C           -1.73740302593790       -2.14493163152897       -0.27860341647753
C           -0.79027526306850       -1.03061630282461       -0.23033036614442
N            0.49932817248677       -1.30915700701054       -0.18556079540863
C            1.37363417785127       -0.25547896758618       -0.12614484797185
C            2.78000601175719       -0.52472542229580       -0.07806612892850
C            3.25604643242676       -1.84485135500666       -0.09824257405365
C            4.60725929986655       -2.08915018625885       -0.06527693099546
C            5.51748454647886       -1.03363864445829       -0.00984869766831
N            6.89678593618825       -1.32005608236702        0.01482500987247
C            7.80792993159390       -1.00064491197906       -0.96356646489692
C            7.59851316417988       -0.38488752336021       -2.19006294183141
C            8.69643861431572       -0.18776033151481       -3.00545720747018
C            9.97036303378729       -0.59946619441191       -2.61951467992455
C           10.17963871391474       -1.23708466279205       -1.41072222846059
C            9.09359462017024       -1.44721236805255       -0.57355878391672
C            8.92955285817419       -2.08003719173456        0.70684947877093
C            9.80051362823489       -2.70254364730888        1.58927119503592
C            9.30751565981151       -3.22269353989182        2.77544296683516
C           10.21508529517500       -3.90776988976290        3.75254205055302
C            7.94375886347295       -3.10827697975531        3.07148935696320
C            7.05503744080978       -2.49301667255721        2.21463784781383
C            7.55444997091069       -1.98392097323403        1.02310588417830
C            5.06501051205082        0.29385212923775        0.04391948512175
C            6.03580878138487        1.42815456884189        0.18181846858263
C            3.70665693390567        0.52598532975752        0.00035348854426
N            0.93204070983058        0.99131336148367       -0.10998459407001
C           -0.36853532532497        1.22937704148066       -0.17006374793248
C           -0.85683836384644        2.57601373300711       -0.16366319545699
C           -2.23524498252901        2.83687144218147       -0.20908491371654
C           -2.69045288011790        4.13274363471153       -0.21355022367530
C           -1.79270273335640        5.19943525203403       -0.17374154106903
N           -2.29302113797953        6.51677848447302       -0.18805032487805
C           -2.12033249911027        7.43712690094693       -1.19414814750952
C           -1.47696407859718        7.29098229553347       -2.41562902070906
C           -1.45510216273938        8.38114887200851       -3.26426664331279
C           -2.06394161961703        9.58489797107388       -2.91536047891645
C           -2.72739144722778        9.72739402292002       -1.71078919499992
C           -2.76394261534195        8.64758815312362       -0.84061964130909
C           -3.36247967530244        8.42484038093503        0.44730792310161
C           -4.11269032200874        9.21378573630519        1.30724683123849
C           -4.54710971105723        8.68168266187344        2.51084239112356
C           -5.36273433495792        9.50083499092977        3.46561363999003
C           -4.22032793882447        7.36210169979949        2.84627773962951
C           -3.47481267517453        6.55507337200402        2.01228093580061
C           -3.05125545467446        7.09205538273118        0.80374274007818
C           -0.41114710910357        4.96418683165515       -0.09805256485875
C            0.55287849239985        6.10661801435718        0.01804610202539
C            0.03329375820784        3.65919104016384       -0.10134817633424
N           -1.26967695523246        0.19873137540393       -0.23797082226213
C           -3.10372253454781       -1.89671732153834       -0.37716604049666
C           -4.02518293584707       -2.92874324356336       -0.42357304799553
C           -5.48660362539357       -2.64290333191045       -0.58771988348326
H           -8.96774132604414       -7.99854541209440        2.70750529265941
H           -9.26412916689830       -6.33990413957181        3.24014122295495
H           -8.09826290736163       -7.34039442606091        4.09848101437469
H           -6.89956079482137       -5.00025594643594        3.51735009909235
H           -5.08427934443163       -4.11643720981691        2.10187692240510
H           -7.66791628273938       -8.14873590359556        0.73297193723063
H           -6.59165680564422       -8.97045383380612       -1.67698525081227
H           -5.24046231634007       -9.20260859106735       -3.73322178844221
H           -3.47341986656278       -7.59299773686111       -4.26122429774674
H           -2.98473400822644       -5.69820570851190       -2.74987779311521
H           -1.84552020550027       -5.52503245788997       -0.22506677963615
H           -0.21866762496912       -3.64433758389798       -0.17149950379018
H            2.54450647623734       -2.65372140553397       -0.14758335932907
H            4.98568070970652       -3.10113232318588       -0.09232769745239
H            6.60786566841406       -0.08669381002449       -2.49946795250101
H            8.56454550982273        0.29097701763960       -3.96460337916233
H           10.80385590892275       -0.42537678150231       -3.28369949086692
H           11.16575918205703       -1.57004332083338       -1.12373795157026
H           10.85158096612494       -2.77914687428328        1.35234210581582
H           11.24364279143347       -3.89942409299264        3.40120424760692
H            9.90599564512698       -4.94277457292165        3.89641757192739
H           10.17441888788895       -3.41243020779810        4.72208773776681
H            7.58152875440945       -3.51590615231579        4.00430237706262
H            6.00684544016205       -2.40669012127888        2.45852474448190
H            6.51486248511856        1.65217132581365       -0.77121851984441
H            5.52297600668279        2.32313250397457        0.52459055134877
H            6.82099042968999        1.17714179920155        0.89386049048648
H            3.32727033752836        1.53573251708812        0.04045028762545
H           -2.92075165776607        2.00517851529641       -0.24552872293603
H           -3.74912308888145        4.34566536734637       -0.25826847212732
H           -1.02423556996855        6.35141381855377       -2.69553008037643
H           -0.95999469190826        8.29794061111966       -4.22055306833908
H           -2.02343651222130       10.41486883520528       -3.60505102587943
H           -3.21204589515091       10.65681877117207       -1.45203191088563
H           -4.35335834926962       10.23224058682039        1.03969002015180
H           -6.33226946109173        9.03332318237871        3.63531230893217
H           -4.85882987049471        9.57683363619133        4.42865828773601
H           -5.52479052995494       10.50360630995234        3.07878154805971
H           -4.56477743109885        6.96893510896616        3.79196177151030
H           -3.22529348227904        5.54099995545281        2.28627336184029
H            1.51830319363946        5.75116485041225        0.36878096638397
H            0.17845676474297        6.85555128008496        0.71485022755476
H            0.69737712464287        6.59608562723262       -0.94505600097798
H            1.08974332531098        3.44563393888380       -0.04288234739293
H           -3.43534054596391       -0.87084201848750       -0.43247944106011
H           -6.00446324841670       -2.69046744693084        0.37007133511497
H           -5.94960676728812       -3.37420140869399       -1.24837072188016
H           -5.63087846801753       -1.64908336139301       -1.00369842570893
