117
 energy: -177.108983059770 gnorm: 0.000149439197 xtb: 6.7.1 (edcfbbe)
C           -4.37187286022902      -10.25189334145260        2.80752158612118
C           -3.66129582164894       -9.28955870549611        1.90217135305814
C           -3.45694977650828       -7.97230714587925        2.32768920493334
C           -2.81574627692433       -7.03632411595616        1.54187810129939
C           -2.37947186982752       -7.43577911537959        0.28700860252112
C           -2.54625118138359       -8.76820008410628       -0.15018633440693
C           -3.19473283945704       -9.68918863072917        0.66250367408274
C           -1.92462964548376       -8.85287275846902       -1.44235155796308
C           -1.76755683177780       -9.87608538904840       -2.36812026134124
C           -1.10285919982210       -9.60512471441987       -3.54749981572790
C           -0.60375796149114       -8.33191748999177       -3.81564692193060
C           -0.74891748467949       -7.29630397500661       -2.91287717099982
C           -1.40429927272142       -7.56773095156154       -1.72097044623122
N           -1.70116762347529       -6.71886295930566       -0.67609183981142
C           -1.35519044893733       -5.35917476572082       -0.60739758898189
C           -0.00824083111425       -5.00456891433128       -0.61393230979768
C            0.36624786707695       -3.68079035920226       -0.53942163828262
C           -0.61106329989208       -2.69062230116671       -0.45831949679233
C           -0.22887655491845       -1.28282177139138       -0.37008021382449
N            1.06783992206353       -0.99125516166072       -0.32098694815518
C            1.37195899081709        0.30063077197105       -0.23608139232545
C            2.78489202463466        0.66864000944993       -0.17314921079222
C            3.77026707084990       -0.31647353099562       -0.20172392048265
C            5.09854601340915        0.04552361588175       -0.15123324736594
C            5.46297245048028        1.38758645084808       -0.07028099009062
N            6.82669734577912        1.72005941614435       -0.02713340270632
C            7.51164110686993        2.47457566493979       -0.95415330781008
C            7.06346870963981        3.01649608471731       -2.15018914095135
C            7.97116588311052        3.72195580998870       -2.91651245688525
C            9.29628492032328        3.87647280361251       -2.51460928336218
C            9.75518437441870        3.31003665614049       -1.34200772278514
C            8.86257450519930        2.59637214312861       -0.55328700743202
C            8.98984313659570        1.86312090556394        0.67533722835523
C           10.04823937895170        1.62125971401996        1.54195012684688
C            9.83520555512169        0.85669233851276        2.67508621393445
C           10.95299753211420        0.56581160347147        3.63244364124982
C            8.55879582300016        0.34626264733482        2.93751784976808
C            7.48850440324422        0.57273204951041        2.09634432027728
C            7.71356546876934        1.32799888257341        0.95516594079955
C            4.48426446817609        2.38780992829999       -0.00632470554094
C            4.85781303513226        3.82799099750763        0.16789295471732
C            3.15466001894468        2.00698334806956       -0.06962188630279
N            0.46934712945981        1.27737168883796       -0.20657836708715
C           -0.80350982579010        0.89571519250541       -0.26471244193285
C           -1.83267405747564        1.93329174072005       -0.24419513355141
C           -3.17934386188865        1.59120330585460       -0.35176010460881
C           -4.13744421739349        2.58111888170970       -0.34671111528583
C           -3.77003021955451        3.91993872413624       -0.23216399219046
N           -4.77263939726619        4.90312664630476       -0.24036047081447
C           -4.91769721584800        5.91062946723538       -1.16878610683337
C           -4.18349222677767        6.15717196647443       -2.31995502313376
C           -4.55424115259432        7.23525198689554       -3.10041772122914
C           -5.63586553714457        8.04339782155458       -2.75644733562115
C           -6.39060282779281        7.78126347982289       -1.63035438085486
C           -6.03829884084446        6.70368411784954       -0.82856126744617
C           -6.59734818577331        6.12779842385072        0.36274534077416
C           -7.68154849262381        6.45440109973093        1.16741031249319
C           -7.95912900916098        5.67820026030074        2.27845981193662
C           -9.12551628714688        5.99189506738651        3.16829014784131
C           -7.14168071386072        4.58341346349647        2.58143014166446
C           -6.05663063118299        4.23730284600548        1.80212591374652
C           -5.79361856253895        5.01171889180104        0.68209762527581
C           -2.42355005505816        4.27792479777206       -0.08637027832052
C           -2.01906955933645        5.70445534415066        0.12676678232757
C           -1.47319460739094        3.27127181750895       -0.10618600731735
N           -1.19798260020958       -0.37201458695885       -0.34294691170709
C           -1.95623244887706       -3.04979014235400       -0.47535225683416
C           -2.35023288175227       -4.37447132975448       -0.55778478549014
C           -3.80167960110916       -4.73682517525545       -0.63269557305475
H           -4.42634079837570      -11.24023337238836        2.35832800407433
H           -5.38571916725653       -9.90678470931720        3.00909970894726
H           -3.85266986200075      -10.33230746983522        3.76200453934662
H           -3.80866986002191       -7.68502982906348        3.30843709917810
H           -2.64153554266434       -6.03260747733736        1.90065101875248
H           -3.32509949225895      -10.70835416222706        0.32931021801757
H           -2.16063896721420      -10.86119183646505       -2.16632594114309
H           -0.96875249689505      -10.38804874108349       -4.27917084425961
H           -0.09430333403184       -8.15071234388683       -4.75066763900094
H           -0.36864691965718       -6.30828947899048       -3.12656301142712
H            0.73615657873231       -5.78557447411262       -0.66827946707584
H            1.40533480880749       -3.39398923517482       -0.53684304760730
H            3.47589226695795       -1.35116301038052       -0.27028990452164
H            5.87550832551942       -0.70431872494523       -0.18375071058982
H            6.04507965740547        2.87344323550210       -2.48018188110929
H            7.64868951883823        4.15770417556454       -3.85087660935312
H            9.97466373015339        4.43677120820016       -3.14078609394070
H           10.78797554812229        3.41132497537351       -1.04416965806977
H           11.02575377120498        2.02927133384142        1.33047702624400
H           11.13636348451893       -0.50698281002288        3.68772376158465
H           10.69763850921777        0.91090864504676        4.63375462120350
H           11.87071556093455        1.05724427299272        3.31964096010070
H            8.41085902363341       -0.24274757323137        3.83138086396587
H            6.50850249401665        0.17778904382001        2.31982159537700
H            4.02600574138045        4.38296993296775        0.59432674304974
H            5.72159609416548        3.92397883778990        0.82364561963144
H            5.11811488540321        4.28431696958177       -0.78687597649693
H            2.37520599988018        2.75190149873916       -0.02453836494408
H           -3.45054143293009        0.55233574825300       -0.44749331933589
H           -5.18490458278783        2.33474318127826       -0.44241656127245
H           -3.36351851748972        5.51529018001605       -2.60645713220465
H           -3.99798453034163        7.45270773219081       -4.00051920503324
H           -5.89266097944876        8.87811028776090       -3.39168502440107
H           -7.24244187948999        8.39486599474733       -1.37840444283934
H           -8.29824348405301        7.30757307530771        0.92553152258417
H           -8.79432438055462        6.13436184583671        4.19631889010100
H           -9.63403110738870        6.89446576887549        2.83912844413675
H           -9.84079257998593        5.16966549934245        3.16078805356797
H           -7.37056356474951        3.99362195219083        3.45754884447731
H           -5.43167041899587        3.39416226073156        2.05680947370464
H           -1.04895068317978        5.75078964054368        0.61512982634464
H           -2.75145834501537        6.22337652570786        0.74290855955387
H           -1.94940743729501        6.23860004201646       -0.82054835295257
H           -0.42685521040703        3.51216317950519        0.00154224082257
H           -2.69658934749340       -2.26571212913411       -0.43553644776145
H           -4.17774372485756       -5.05170484188434        0.34046704098600
H           -3.95554548412175       -5.56207432540072       -1.32609901047820
H           -4.38629620547333       -3.88223595679270       -0.96360341155733
