117
 energy: -177.108997525100 gnorm: 0.000043594977 xtb: 6.7.1 (edcfbbe)
C           -8.56182718377941       -7.08214027803795        3.07013295412677
C           -7.45565040137550       -6.59417562333795        2.18193394919202
C           -6.72224995555252       -5.46395277604845        2.55967395584721
C           -5.69692908886303       -4.95974714563061        1.78564052154450
C           -5.41136384447604       -5.60504424280990        0.59125023424228
C           -6.11527191180658       -6.76737133048001        0.20690694607879
C           -7.14222070595175       -7.25278648079998        1.00628506323940
C           -5.52298520479423       -7.21305342652736       -1.02350932064914
C           -5.77435259237634       -8.27574444780257       -1.88152932759437
C           -4.99529275687261       -8.41108798312331       -3.01331445020773
C           -3.98122383635185       -7.49971693551997       -3.30157228180026
C           -3.71266518069116       -6.43272315326095       -2.46612745449494
C           -4.48357920067858       -6.30128095171623       -1.32059995102381
N           -4.43922607369355       -5.32666482866520       -0.34642701108124
C           -3.54583769244322       -4.24349067232091       -0.31819652721609
C           -2.17839639751748       -4.49890357530129       -0.24491815870814
C           -1.27404719307777       -3.46018489091307       -0.21042316257439
C           -1.73257459427731       -2.14466068753452       -0.24689787725115
C           -0.78644835685145       -1.03191839169651       -0.20362139437808
N            0.51195119663145       -1.31823801224745       -0.16993066065641
C            1.33770560612075       -0.27621107024789       -0.13940625024189
C            2.77427687746801       -0.54149154959036       -0.09950977694605
C            3.24840426929174       -1.85194625627132       -0.10310499714878
C            4.60558939189180       -2.08633952314074       -0.06928966049524
C            5.50578806161179       -1.02398995974142       -0.03119023453557
N            6.88227860733749       -1.30071410347818        0.00112054889388
C            7.81123750656440       -0.93556087373104       -0.94816042504657
C            7.62040579480870       -0.29220979262102       -2.16253267971356
C            8.73237314710057       -0.06060744134418       -2.94911316418573
C           10.00311125157106       -0.46858354601507       -2.54891566869333
C           10.19308622605262       -1.13903701620860       -1.35692000681028
C            9.09167005971910       -1.38344847724713       -0.54740933841952
C            8.91135720646501       -2.06170304250211        0.70593462560481
C            9.77833656353514       -2.69855122832542        1.58491970562516
C            9.27509230641760       -3.26329165990570        2.74325700086857
C           10.17659458451286       -3.96341265488715        3.71680671604845
C            7.90535678434197       -3.17894933811671        3.01782824062044
C            7.02136804320970       -2.55034837402529        2.16477444971284
C            7.53170583957821       -1.99850073291016        0.99928855994803
C            5.04479276969608        0.29834130680814        0.00372922551485
C            5.99667120936046        1.44822408643966        0.12858194428435
C            3.67824159432559        0.51585929693678       -0.04078136508769
N            0.93635860512271        0.99206470523456       -0.14264140455880
C           -0.37919646364641        1.18625208340617       -0.16893453680864
C           -0.87036063548911        2.56285745649312       -0.16453240054453
C           -2.23965836887097        2.82124647554893       -0.14944624741731
C           -2.68833852913851        4.12384612910723       -0.15409467382609
C           -1.78366132371943        5.18278411585473       -0.17407038897961
N           -2.27648468978755        6.49789995520852       -0.18634771201156
C           -2.08371110461179        7.43093156427031       -1.18126335763919
C           -1.44116818946676        7.29246807354525       -2.40314203912777
C           -1.40679468028618        8.39156003952103       -3.23956962385976
C           -2.00634422348386        9.59693558941624       -2.88036862738455
C           -2.67566152492781        9.72927634816565       -1.67998658536671
C           -2.72413560532796        8.63944853815928       -0.82085001716992
C           -3.34080049271015        8.40779567216312        0.45561989594522
C           -4.09285038815759        9.19915085644926        1.31464660969518
C           -4.54802555719388        8.66307769083815        2.50601088528371
C           -5.36683908198851        9.48254433250790        3.45927305376379
C           -4.23901166741121        7.33790363948757        2.83327887199800
C           -3.49184490308408        6.52954550707124        2.00100875820640
C           -3.05080113758968        7.07016911494213        0.80244077638132
C           -0.40410935247566        4.94050373034026       -0.15600966807148
C            0.57990729882244        6.06808776015791       -0.09200652252759
C            0.02917014074262        3.62553644284054       -0.16064696437394
N           -1.27618776381552        0.20488285221916       -0.19937875527974
C           -3.09926972444220       -1.89577814017828       -0.34132848385460
C           -4.02113105940863       -2.92761041452416       -0.38879716832329
C           -5.48161672204246       -2.63846706253969       -0.55365665000449
H           -9.02693933656210       -7.97375223717957        2.65760254195901
H           -9.32586514769596       -6.31351364549260        3.18352918468226
H           -8.17838388292170       -7.31802888101034        4.06231453561531
H           -6.96629730509520       -4.97710587927214        3.49321223592771
H           -5.12313630333664       -4.10396672498014        2.10940438475031
H           -7.68394775712718       -8.14000954748712        0.71289637770012
H           -6.56500643157748       -8.97830721331786       -1.66487776792138
H           -5.17355343711028       -9.23232440815283       -3.69159994910762
H           -3.39406423107552       -7.62952191138230       -4.19880606680359
H           -2.93197517755617       -5.72285024726979       -2.69635500326691
H           -1.84110522989604       -5.52444564582545       -0.20599076541208
H           -0.21390258474335       -3.64486201067342       -0.14755567355766
H            2.54209869612301       -2.66544005207623       -0.13922843566818
H            4.99081065380505       -3.09552244504305       -0.08118943854858
H            6.63323257317906       -0.00137824015619       -2.49028061094258
H            8.61367780280540        0.44150843668989       -3.89816488677949
H           10.84751279820085       -0.26728625560843       -3.19132929721559
H           11.17535405565891       -1.47426689953202       -1.05959306641695
H           10.83437145733198       -2.74844805002186        1.36348517219377
H           11.20905753486913       -3.93873347548763        3.37781034239641
H            9.87499371242200       -5.00384591829814        3.83429227602526
H           10.12127772543919       -3.48916287840056        4.69618416095554
H            7.53258834135374       -3.62044560263280        3.93102595838368
H            5.96867076979283       -2.48737289330204        2.39757547852219
H            6.41335108618824        1.71959310383681       -0.84112882421379
H            5.48499152550316        2.31736605070458        0.53417945005599
H            6.82818134203415        1.18922771285182        0.78193149590521
H            3.28873991515120        1.52186168110529       -0.01424338562782
H           -2.92965185545170        1.99312839140512       -0.13980913447395
H           -3.74630615383733        4.34233040859168       -0.15251030490735
H           -1.00124813576835        6.35124290168617       -2.69825402811364
H           -0.91036930364876        8.31322973878176       -4.19576882087361
H           -1.95594686919142       10.43365755857448       -3.56123130649824
H           -3.15883694241347       10.65732805154580       -1.41373069680838
H           -4.31624293381513       10.22283338544153        1.05215720982359
H           -6.34316809018969        9.02404424446101        3.61368537627019
H           -4.87305057306648        9.54638200057395        4.42841091966787
H           -5.51419115562518       10.48994956932047        3.07856943168792
H           -4.59788415958665        6.93957463942793        3.77155877639153
H           -3.25587376627791        5.51171252536690        2.27431331840968
H            1.52721370555173        5.71795330934678        0.31014332967273
H            0.20243985239365        6.87182004603217        0.53799271251787
H            0.76316186453333        6.48539890812966       -1.08189847155383
H            1.08498668774779        3.40299187235570       -0.14777892661074
H           -3.43088501619546       -0.87024868049297       -0.39449974883044
H           -5.99845477564574       -2.67055733415758        0.40519912254802
H           -5.94854139402944       -3.37735870991862       -1.20277143141658
H           -5.62267599248072       -1.64989617232400       -0.98322829306193
