  117
       -177.03037849
 C         -6.5118343795       -9.0467054633        3.0457945638
 C         -5.5884314041       -8.2763451014        2.1505636196
 C         -5.1486855798       -7.0081914543        2.5489175444
 C         -4.3036643348       -6.2456472268        1.7698230107
 C         -3.8974771312       -6.7721252685        0.5503406084
 C         -4.3074043989       -8.0621100312        0.1402384326
 C         -5.1580168718       -8.8064610778        0.9446670959
 C         -3.6632458556       -8.3079587375       -1.1214346229
 C         -3.6641755038       -9.3708451118       -2.0130041159
 C         -2.9082268567       -9.2682219048       -3.1662699150
 C         -2.1629204728       -8.1232681435       -3.4404649316
 C         -2.1467497025       -7.0498311840       -2.5705921444
 C         -2.8956717331       -7.1531319989       -1.4066803685
 N         -3.0598477816       -6.2342193392       -0.3966999649
 C         -2.4505266692       -4.9652879431       -0.3434448990
 C         -1.0611386339       -4.8869672446       -0.2440830092
 C         -0.4341002375       -3.6658143778       -0.1907052693
 C         -1.1916118547       -2.4876441147       -0.2340057668
 C         -0.5462134507       -1.2005908023       -0.1767142998
 N          0.7886076571       -1.1496277708       -0.1089587369
 C          1.3690707038        0.0518642482       -0.0628816352
 C          2.8094018542        0.1260523824       -0.0206239249
 C          3.5817883751       -1.0427508471       -0.0169845892
 C          4.9529910922       -0.9588353139        0.0045403552
 C          5.5860687939        0.2843390747        0.0224911922
 N          6.9935266684        0.3333566299        0.0355854156
 C          7.7956767016        0.8493292250       -0.9545677092
 C          7.4376018256        1.3742364744       -2.1887545575
 C          8.4511869394        1.8187630156       -3.0159049119
 C          9.7884748244        1.7362724547       -2.6337139545
 C         10.1516288505        1.1887392773       -1.4172218977
 C          9.1528221127        0.7345101544       -0.5683718043
 C          9.1529381238        0.1013037908        0.7223918751
 C         10.1527994085       -0.2740298364        1.6079315264
 C          9.8061634526       -0.8779231226        2.8062325513
 C         10.8578735529       -1.3065887630        3.7848951933
 C          8.4571202905       -1.0962204450        3.1104424231
 C          7.4418428144       -0.7313606596        2.2508693512
 C          7.7972835589       -0.1355791189        1.0480737191
 C          4.8324229305        1.4668459013        0.0509160460
 C          5.5029318784        2.8046223615        0.1434371771
 C          3.4559045043        1.3670053530        0.0214246401
 N          0.6595863366        1.1856200247       -0.0567721177
 C         -0.6726176723        1.0856779375       -0.1310532758
 C         -1.4638114348        2.2921652518       -0.1378821905
 C         -2.8610133358        2.2276674657       -0.2176461691
 C         -3.6016924287        3.3849735298       -0.2311440728
 C         -2.9729391792        4.6285053848       -0.1655336977
 N         -3.7628686569        5.7949742694       -0.1838223055
 C         -3.7815608573        6.7470887565       -1.1750496598
 C         -3.0927457049        6.7722916806       -2.3800903204
 C         -3.3021668687        7.8516856565       -3.2169297395
 C         -4.1803433622        8.8771639979       -2.8726611886
 C         -4.8879455032        8.8436504568       -1.6853702562
 C         -4.6956200087        7.7707709414       -0.8271717162
 C         -5.2589918764        7.3948667044        0.4409508415
 C         -6.1916314146        7.9758442724        1.2880896209
 C         -6.5222479408        7.3375112109        2.4728866036
 C         -7.5270935562        7.9311570339        3.4139168238
 C         -5.9100639342        6.1221540666        2.8026775253
 C         -4.9781185637        5.5223908625        1.9815064416
 C         -4.6588474383        6.1633738946        0.7918399276
 C         -1.5773449291        4.7163954892       -0.0562926906
 C         -0.9034445640        6.0475643046        0.0896379969
 C         -0.8460711000        3.5459577748       -0.0521519736
 N         -1.2958536991       -0.0935014124       -0.2021606131
 C         -2.5843563057       -2.5798532612       -0.3509632622
 C         -3.2269661615       -3.7992798974       -0.4162318365
 C         -4.7126623671       -3.8787604620       -0.6004317498
 H         -6.7452120846      -10.0194903038        2.6208533120
 H         -7.4427973290       -8.4995400309        3.1921875868
 H         -6.0573728376       -9.1945749044        4.0248825626
 H         -5.4811730371       -6.6216427927        3.5016266670
 H         -3.9544217498       -5.2793883857        2.1019415179
 H         -5.4758597323       -9.7911093110        0.6346845401
 H         -4.2444596553      -10.2580048566       -1.8084200860
 H         -2.8948032860      -10.0863908007       -3.8709627968
 H         -1.5873410186       -8.0739340964       -4.3528923521
 H         -1.5746294283       -6.1594886525       -2.7843179555
 H         -0.4902155576       -5.8035179769       -0.2008770834
 H          0.6385701764       -3.5918118699       -0.1093205526
 H          3.0809623580       -1.9974117291       -0.0390541068
 H          5.5609374376       -1.8521973843       -0.0041792218
 H          6.4030990765        1.4163855285       -2.4951709830
 H          8.2027949072        2.2342563575       -3.9813880853
 H         10.5518311013        2.0968949484       -3.3069831196
 H         11.1902802503        1.1101512732       -1.1333378489
 H         11.1897707646       -0.0948781930        1.3645033484
 H         11.8439179081       -0.9773444777        3.4668746276
 H         10.8693807007       -2.3928826844        3.8758511106
 H         10.6527880947       -0.8938567273        4.7718213147
 H          8.2085550394       -1.5642689615        4.0520380604
 H          6.4053818534       -0.8994426588        2.5018804043
 H          4.8085146647        3.5471962938        0.5280820791
 H          6.3697012719        2.7576240003        0.8014728172
 H          5.8498074413        3.1363753450       -0.8358269317
 H          2.8461406338        2.2574160920        0.0417249682
 H         -3.3348375722        1.2606461732       -0.2735106576
 H         -4.6795003613        3.3505229376       -0.3024775140
 H         -2.4297901683        5.9663215963       -2.6576438921
 H         -2.7784467746        7.8997552013       -4.1602860551
 H         -4.3157755526        9.7049484963       -3.5527689509
 H         -5.5803904908        9.6319936677       -1.4310706391
 H         -6.6529173925        8.9165139609        1.0252287749
 H         -7.9061755229        8.8763616994        3.0341043772
 H         -8.3667498441        7.2505635349        3.5520965043
 H         -7.0772122634        8.1042808930        4.3910452728
 H         -6.1790638918        5.6438126799        3.7334383765
 H         -4.5094606692        4.5879348587        2.2513552008
 H         -0.8675142744        6.5752080989       -0.8632912996
 H          0.1146087043        5.9175376968        0.4471917799
 H         -1.4466997403        6.6770013770        0.7935468255
 H          0.2295383439        3.5774324152        0.0325569858
 H         -3.1508489454       -1.6627470127       -0.4068832514
 H         -5.2094721710       -4.1510085898        0.3305942866
 H         -4.9669203773       -4.6351390360       -1.3420582460
 H         -5.1033327321       -2.9191330258       -0.9284565685
