117
 energy: -177.034352603394 gnorm: 0.000099323090 xtb: 6.7.1 (edcfbbe)
C           -6.44117441339518       -9.07252975976966        3.10242622523135
C           -5.53695477951137       -8.30077518334978        2.18891199188226
C           -5.08153608030405       -7.03692724742050        2.58313480458837
C           -4.25326671889910       -6.27328158189315        1.78718882529476
C           -3.88058799728982       -6.79392104340985        0.55461899194498
C           -4.30677722578904       -8.07969852615333        0.14788995004322
C           -5.13968522476384       -8.82541102445083        0.96936797701649
C           -3.69852137984466       -8.31981362738845       -1.13241833082188
C           -3.72939306966372       -9.37693528706318       -2.03027079854922
C           -3.00672121474821       -9.26968126083167       -3.20415411786909
C           -2.26512837684527       -8.12565530054431       -3.49209967182508
C           -2.21934314815936       -7.05812658425961       -2.61606533454378
C           -2.93484639282354       -7.16589120192668       -1.43166947903117
N           -3.06635551765619       -6.25333056281299       -0.41131829920086
C           -2.45869863854628       -4.98284865828659       -0.36885539210928
C           -1.06792687133094       -4.89847407037034       -0.30419796462201
C           -0.44412317351942       -3.67556573626408       -0.25662329864079
C           -1.20620629203549       -2.49731965486714       -0.27123337060358
C           -0.56953911310384       -1.21495226382810       -0.21141590780640
N            0.79775929575894       -1.15576552082693       -0.14516918379920
C            1.35528356978245        0.04060457753629       -0.09634457871993
C            2.81545313041770        0.12155364612580       -0.04656312829022
C            3.58527129291287       -1.03987370077392       -0.03441703973463
C            4.95953868589137       -0.94828279165498       -0.00094691930194
C            5.58304994847296        0.29673432861787        0.02238163646238
N            6.98821065970334        0.35489089640034        0.04767847921839
C            7.79620121176285        0.89092485853220       -0.92936130651787
C            7.44688572462769        1.43076428324561       -2.15908498510399
C            8.46568299140534        1.88919101382823       -2.97211384719927
C            9.80038286950546        1.80436625927405       -2.58148153662015
C           10.15477394603137        1.24026195807940       -1.37119392664961
C            9.14995712089837        0.77256047265292       -0.53557104413409
C            9.14432849146174        0.11885233655748        0.74416108161786
C           10.14254208668292       -0.26604579850456        1.62906982616341
C            9.79386039032147       -0.89051868535271        2.81451208426218
C           10.84196484172375       -1.32511378655303        3.79525006042033
C            8.44441483629915       -1.11837991383828        3.10860542433422
C            7.43129919025641       -0.74461567837087        2.24973313531119
C            7.78962160226035       -0.13030896875603        1.05833180624716
C            4.82410175857258        1.47350045741995        0.04314883860586
C            5.48098061134509        2.81602195589437        0.14638415942643
C            3.44504092166851        1.36252412533327       -0.00149425067934
N            0.66644448626655        1.16575262501173       -0.08610600641024
C           -0.69906098329989        1.07082438878572       -0.15641863409003
C           -1.47875668097431        2.27221221104756       -0.15794874899332
C           -2.88033329492354        2.22015461968989       -0.22158918111853
C           -3.61137404851933        3.38203047550834       -0.22899396759761
C           -2.97389633809086        4.62256791689217       -0.17302430030051
N           -3.75562222457939        5.79479105014318       -0.18715286959388
C           -3.77324067538122        6.74504272119485       -1.18002328760985
C           -3.09277254687246        6.76205486549277       -2.38996283112138
C           -3.29749011400982        7.84234466318458       -3.22671731864291
C           -4.16310355679976        8.87687802151939       -2.87766803191069
C           -4.86293899070501        8.85161587741285       -1.68556254781298
C           -4.67516484157611        7.77789239297390       -0.82745181676838
C           -5.23285297222391        7.40923846438973        0.44528856471646
C           -6.15525952359291        7.99938205014767        1.29717704181257
C           -6.48323576737068        7.36617200564288        2.48547170188720
C           -7.47860552384800        7.96908306348156        3.43074689748640
C           -5.87785533132151        6.14715547670362        2.81423904988396
C           -4.95629381334940        5.53813217725284        1.98818653387861
C           -4.64045158961043        6.17337764111671        0.79443771591995
C           -1.57666571875387        4.70010388202083       -0.07876479799325
C           -0.89086059018810        6.02660195823060        0.05651995167318
C           -0.85312650553369        3.52581432358342       -0.08077244961517
N           -1.29486717361222       -0.10946427562906       -0.22501318616219
C           -2.60304288499596       -2.59735413267900       -0.35737205067496
C           -3.24079815874254       -3.81834583691066       -0.41539926560305
C           -4.73060666049877       -3.90238661581283       -0.56150838879303
H           -6.69226432559044      -10.04025304207619        2.67596115191171
H           -7.36429855013524       -8.52076437694459        3.27822033922431
H           -5.96171416852838       -9.23162039372541        4.06776002442520
H           -5.38823408812877       -6.65435107845471        3.54610149191917
H           -3.89228962017199       -5.31005554955551        2.11560712433828
H           -5.46993620509490       -9.80666539788559        0.66148480077287
H           -4.30735993750685      -10.26301778059154       -1.81464640909515
H           -3.01706960671435      -10.08311726864751       -3.91437433459936
H           -1.71621369707113       -8.07238733733822       -4.42063058512180
H           -1.65017719861512       -6.16852624387860       -2.84053106120503
H           -0.49189285903620       -5.81266542469161       -0.28239707142948
H            0.63021322723441       -3.59968076517986       -0.20132599440621
H            3.09025151797076       -1.99765132396267       -0.05880088435550
H            5.57164896180601       -1.83848577884491       -0.00222842264119
H            6.41531707536890        1.47296237325331       -2.47592559412441
H            8.22323931894880        2.31705511228869       -3.93377786115857
H           10.56770913788507        2.17553686968464       -3.24447828093402
H           11.19121955497092        1.15769551970687       -1.08045777702346
H           11.17944593401448       -0.07755296982653        1.39248556001857
H           11.83769384879645       -1.07920036972647        3.43537557598553
H           10.78764489606660       -2.40107709424414        3.95812422382696
H           10.68959253059317       -0.83613396142634        4.75694108134720
H            8.19296441257162       -1.60178075449707        4.04170569470517
H            6.39475190733631       -0.92138376460484        2.49543946930858
H            4.77571523863385        3.55184329271652        0.52415716908600
H            6.34015937860419        2.77342459010171        0.81394679378081
H            5.83712379267623        3.15311557807692       -0.82694594786758
H            2.82910682513929        2.24901156482825        0.01100494083502
H           -3.36334965971815        1.25725083632454       -0.26996797294151
H           -4.69016089537573        3.35484990669404       -0.28815846462969
H           -2.43967588559855        5.94923237162513       -2.67075279856383
H           -2.77991621260436        7.88420038223988       -4.17378314071488
H           -4.29487058276821        9.70534335627336       -3.55770145224927
H           -5.54574820475214        9.64709509397116       -1.42740520934685
H           -6.61100655524440        8.94300614562651        1.03521711762440
H           -7.85104546954314        8.91740504211178        3.05204822200795
H           -8.32369592420639        7.29597629344087        3.57263287012384
H           -7.02323004657876        8.13866480298780        4.40594550105790
H           -6.14407977069745        5.67330606044576        3.74811410824008
H           -4.49289428376009        4.60078117626076        2.25702843436614
H           -0.83290321110260        6.53727119636151       -0.90468234994159
H            0.12000266664495        5.89172959057255        0.43275232252527
H           -1.43804872570144        6.67400444879870        0.74060207775041
H            0.22351869807081        3.55215980971327       -0.00756313827838
H           -3.17643162553644       -1.68349623939798       -0.39286720498800
H           -5.20320227305891       -4.16080075991377        0.38603331097404
H           -5.00281732438072       -4.66974873278929       -1.28510647653652
H           -5.13076481117923       -2.94788741394762       -0.89347540830286
