113
 energy: -178.135877252663 gnorm: 0.000191677313 xtb: 6.7.1 (edcfbbe)
N           12.33649386907220       -3.98545049226236        0.20962135452472
C           11.25137097567578       -3.61650151064620        0.17796554679343
C            9.91504799960146       -3.15919519037672        0.14130936567018
C            8.92094775834009       -3.84110759360811        0.84742156355139
C            7.62348627031864       -3.38230443106935        0.81472502979719
C            7.28844165762885       -2.23608513289935        0.08665832583947
C            5.89779924063560       -1.82209598915802        0.09201790369422
N            4.90899066648095       -2.67560169965682        0.17738349625290
C            3.76803425542554       -1.94433773445727        0.12318919704303
C            2.42687919603112       -2.41876941238349        0.14511968384616
C            2.12340156442010       -3.78293135440769        0.21788295312987
C            0.81989367749830       -4.21045197618967        0.21817070523957
C           -0.22234340822908       -3.27637540381066        0.15361544243001
C           -1.63339064889050       -3.68186399313541        0.15770030821435
C           -2.56591486507944       -2.95758695868418        0.90037807004631
C           -3.90570748594507       -3.27309021902925        0.86227347547552
C           -4.36378966523628       -4.31772599498064        0.05802225961989
N           -5.73117607640889       -4.59107138806302       -0.02696357221677
C           -6.18302360183530       -5.90967746363244       -0.14861290148292
C           -5.53667694901917       -6.94391927970935        0.52795367068178
C           -5.98446779713107       -8.24439829205698        0.40186930589342
C           -7.08379312102086       -8.53501134871331       -0.38931849880295
C           -7.73202220373038       -7.51072426746262       -1.05990570177806
C           -7.28668682022509       -6.20817718491782       -0.94734932915196
C           -6.64999040247433       -3.53458725964416        0.01009988371726
C           -7.86770899882895       -3.67735887778987        0.67463929684291
C           -8.76618254593433       -2.62876145840790        0.71416351331836
C           -8.46567023937604       -1.42197806509858        0.10391638352479
C           -7.25761386409811       -1.27415747223590       -0.55782684688587
C           -6.35766405909306       -2.32053406517252       -0.61219007661979
C           -3.43209287728756       -5.06593399449644       -0.66267991171344
C           -2.08892739812763       -4.75585925847990       -0.60352068121761
C            0.08132406918296       -1.92846093323648        0.07519959994663
C            1.39677436993632       -1.45563183232886        0.07054990875268
C            1.71435997140311       -0.03896804843669        0.01771418016202
C            0.70557460872963        0.92579998957547       -0.01446124604855
C            0.96218061218616        2.28549921405977       -0.01128146708149
C           -0.16571023560486        3.22219124671926       -0.04916296976486
C           -0.19927267405929        4.36296382587384        0.75007687976508
C           -1.30986170394940        5.18081358312809        0.77506942946842
C           -2.42174018111119        4.88998250541413       -0.01690149625838
N           -3.57114966044387        5.68017930107846        0.03424137632613
C           -3.47143311415306        7.06431810981253        0.21617861979630
C           -2.43720694326593        7.78283498796551       -0.38301676124121
C           -2.34180046379387        9.14850976557605       -0.19966577956111
C           -3.27520926176781        9.82002422588716        0.57281011397956
C           -4.30674033592042        9.11138899303921        1.16680910405353
C           -4.40597065699320        7.74429762976763        0.99656258867229
C           -4.83020964696464        5.07835922430456       -0.09200054309991
C           -5.07583356968859        3.82657299107949        0.47276145974092
C           -6.31288047556113        3.22839497453000        0.33196031856495
C           -7.32695993706357        3.87000846982125       -0.36017941277383
C           -7.09215824595870        5.11804609933723       -0.91358575895275
C           -5.85474793413997        5.71928561555157       -0.78762524477933
C           -2.37133512942098        3.77703830593736       -0.85825877895032
C           -1.26657101131195        2.95577978888865       -0.86405373660658
C            2.29198236256246        2.71421224431879        0.05902288495000
C            3.31261461799718        1.79712228125883        0.07252661308139
C            3.06054345764900        0.41742409835084        0.02458841511463
C            4.07039305089959       -0.58495439242543        0.01725311317999
N            5.44644231958967       -0.51996051512003       -0.01324652799727
C            6.26425022896343        0.61582426859571       -0.12476875157932
C            7.15018484106045        0.93141104593473        0.90260282474189
C            7.98075153126558        2.02674451579692        0.78343952338522
C            7.92971363513008        2.81460413051295       -0.36727978899031
C            8.77916856469052        3.93868518734703       -0.49230158533301
N            9.46535720494033        4.85066073660093       -0.59546225719588
C            7.04155775946784        2.49776963832343       -1.39750888419878
C            6.21430456618651        1.40123378706048       -1.27640961617325
C            8.28214055070281       -1.57833733428964       -0.64092201039186
C            9.58427177722087       -2.03149751508061       -0.61116459719589
H            9.17936251633007       -4.72261010495031        1.41513265994485
H            6.84051908456956       -3.89721693375505        1.34852416824111
H            2.94445773329647       -4.48102281190573        0.27105021859161
H            0.58901812372901       -5.26321199848757        0.28713651906558
H           -2.22992304610787       -2.15083449275099        1.53554983794570
H           -4.61278082106988       -2.70784413701119        1.45169083915932
H           -4.68621043910687       -6.71827233556809        1.15467126722051
H           -5.47623303332491       -9.03568717616784        0.93319273149295
H           -7.43304921754840       -9.55207818254611       -0.48227876766515
H           -8.58696541454068       -7.72839447957331       -1.68313666446946
H           -7.78783233244563       -5.41263433897820       -1.47928888128973
H           -8.10010266471541       -4.61281167574113        1.16225798507744
H           -9.70439477683952       -2.75234007667239        1.23490628721404
H           -9.16839129036273       -0.60346215257268        0.14273947725589
H           -7.01682670984666       -0.33943314604485       -1.04341789904872
H           -5.42121030783268       -2.20556597339813       -1.13827621691564
H           -3.77226357498553       -5.88124709222642       -1.28427812960353
H           -1.38573379422759       -5.32833621212236       -1.19061698585552
H           -0.74440886880958       -1.24013343267734       -0.00315484642681
H           -0.32688855329031        0.61823000701726       -0.01428019280390
H            0.63826939520404        4.58761924343905        1.39427343228892
H           -1.33214046621270        6.04268433355906        1.42577807147963
H           -1.71500719526707        7.26287153186630       -0.99550152931778
H           -1.53738148971432        9.69359952249926       -0.67136603521072
H           -3.19932078051853       10.88781419423648        0.71081913578052
H           -5.03595151078022        9.62577202590982        1.77530974013317
H           -5.20569255859217        7.19239556141290        1.46855301171619
H           -4.29071396302224        3.32865820356147        1.02285351428008
H           -6.48797721030520        2.25785803023232        0.77326360227269
H           -8.29354860422424        3.40146007635961       -0.46672441696195
H           -7.87604660261264        5.62457980128677       -1.45722016570513
H           -5.67139273208194        6.68728554891721       -1.23056516379089
H           -3.21116417907366        3.56028884944189       -1.50197721971088
H           -1.24381136654993        2.10441092294372       -1.52864474628446
H            2.51622626661259        3.77029937977989        0.08433207379950
H            4.32992400259143        2.15021982264405        0.13707589230864
H            7.18027007232170        0.31335419364319        1.78735351111601
H            8.66857781269443        2.28048655381344        1.57575392655937
H            7.01035836136045        3.11125243305895       -2.28534293736089
H            5.52326903171017        1.14348145446993       -2.06540025091234
H            8.03807002739751       -0.72557937901613       -1.25572171108955
H           10.35197966634984       -1.52174366375785       -1.17453967177237
