113
 energy: -178.135341514824 gnorm: 0.000047878021 xtb: 6.7.1 (edcfbbe)
N           11.80212633405036       -6.33025656296145       -0.29832566056211
C           10.80459595378700       -5.76632907949227       -0.25822674551428
C            9.57640059603771       -5.06946579821068       -0.21182693474063
C            9.46254788226180       -3.90710886551675        0.55188281324809
C            8.26740839790966       -3.22014571594893        0.59063344438349
C            7.16728562057581       -3.67470053263129       -0.13912151395253
C            5.87796265007387       -3.00912141080309       -0.13635029032042
N            4.74768595786392       -3.66319706337321       -0.22620229251751
C            3.76321498405346       -2.73222776948107       -0.16182052417017
C            2.35769528497329       -2.94653087664872       -0.17287445630508
C            1.81715859969223       -4.23433512788360       -0.24859904637867
C            0.46018280245285       -4.42154054023026       -0.22272613850227
C           -0.39881224963759       -3.31907353894303       -0.11022707671310
C           -1.85368893523154       -3.51436983658597       -0.06401947462580
C           -2.65107292014753       -2.76927661195503        0.80346848111615
C           -4.01642751007222       -2.95369951407100        0.85176189246455
C           -4.63282366511489       -3.89562507776335        0.02726731840127
N           -6.01609864140887       -4.08690971530245        0.07422099205958
C           -6.69469961818621       -4.00298847300782        1.29556679145585
C           -7.96848986824001       -3.43848113766626        1.35906137299273
C           -8.63745180829055       -3.36426736903659        2.56519732086603
C           -8.04883654192101       -3.84059358712505        3.72523947693342
C           -6.78187718836701       -4.39791258302308        3.66844648389008
C           -6.10818051453146       -4.48457203767983        2.46581188454227
C           -6.72424739292959       -4.36895405981713       -1.09994161219133
C           -7.79130573496972       -5.26675349139230       -1.08434679447716
C           -8.49027846549759       -5.53687948504702       -2.24462500702618
C           -8.13505305576735       -4.92701907746808       -3.43665902022907
C           -7.07322382033395       -4.03767546946700       -3.45840799925657
C           -6.37339463357077       -3.75440591304762       -2.30183114840859
C           -3.84013008431254       -4.64345858267949       -0.84428753116360
C           -2.47533293847166       -4.45391297879929       -0.88513639100160
C            0.13882513850232       -2.04518731085522       -0.04219444120175
C            1.51885383920531       -1.81332077621500       -0.07887381814770
C            2.09432433297018       -0.47784627731146       -0.04963684179796
C            1.28714257296831        0.66392697145527       -0.04450579183600
C            1.80241904955530        1.94838748927833       -0.06120426284221
C            0.91264488115528        3.11413450140875       -0.05527673207634
C            1.23296499023320        4.25429204202231        0.68094176287321
C            0.39730525055737        5.34993393597606        0.69752140399044
C           -0.78736710985885        5.34893187793291       -0.04098326235573
N           -1.63216145477458        6.45913241188814       -0.03366438622893
C           -1.09516300809413        7.75093195480013        0.03597384734506
C            0.08067041213800        8.06646070323569       -0.64414646972185
C            0.60608032526205        9.34176642501398       -0.57021378252988
C           -0.03232256450848       10.32214985136231        0.17154570158760
C           -1.20337745837803       10.01504616572326        0.84484145681221
C           -1.73211867052800        8.74042716446840        0.78409143092132
C           -3.02058789709252        6.28762282614757       -0.09913469485943
C           -3.63567249784302        5.22906442555123        0.56866117367825
C           -5.00513986228691        5.06340505079880        0.49762616832894
C           -5.78287863181055        5.95060677631974       -0.22823396639292
C           -5.17739708931912        7.00713697913267       -0.88857544948048
C           -3.80767488052928        7.17597617132540       -0.83123822351234
C           -1.10815453312167        4.21394750983451       -0.78785667722729
C           -0.27512140265407        3.11632617904038       -0.78607507966176
C            3.19226177928198        2.11228761051060       -0.10219118388005
C            4.01788215483485        1.01856836449272       -0.10209365712087
C            3.50365332601726       -0.28546735670757       -0.05263580650264
C            4.31249671667349       -1.45515629056435       -0.04540962036415
N            5.67691530487832       -1.64651495269298       -0.01823766401424
C            6.69213566165374       -0.68432995791925        0.10280233410721
C            6.78984770584960        0.08442184106810        1.26268255459381
C            7.80707880077872        1.00605298017736        1.39330241805354
C            8.73858478757198        1.16250882239463        0.36446756205274
C            9.78292524120106        2.10688578880096        0.49944228866560
N           10.62745178043194        2.87333642088641        0.61101989063449
C            8.64154211474043        0.39116355448151       -0.79443637961714
C            7.62128205485206       -0.52879011922196       -0.92312891686828
C            7.28182380302832       -4.85656351629562       -0.87821912185916
C            8.47127828914467       -5.54825559071856       -0.91984995818575
H           10.31285662958771       -3.55416139804037        1.11670254959988
H            8.18742165826354       -2.34280956910456        1.21400613650471
H            2.50089908749447       -5.06621764405342       -0.31630719590871
H            0.04596290382937       -5.41798978164954       -0.26064747944733
H           -2.19208919636688       -2.04610558210902        1.46184037930590
H           -4.61870864257954       -2.36708446179393        1.53014062888913
H           -8.42602256405567       -3.05792820832648        0.45747724063112
H           -9.62290583849704       -2.92335513424557        2.60043710276797
H           -8.57373006330532       -3.77838272103890        4.66637252105111
H           -6.31713698072180       -4.77732185759442        4.56669371868389
H           -5.12474014618966       -4.92951038101167        2.42278669338343
H           -8.06418581723316       -5.75104424709465       -0.15809742068705
H           -9.31331298438088       -6.23589701997447       -2.21903527322499
H           -8.68175519791924       -5.14318422427346       -4.34190755587643
H           -6.79243507216046       -3.55298521469607       -4.38201840023308
H           -5.55220533234113       -3.05275038218869       -2.31940649379956
H           -4.30452458435344       -5.37743433387787       -1.48655158864911
H           -1.88128256507879       -5.03450544149348       -1.57552984051632
H           -0.54906533552599       -1.21755300208313        0.02468388159658
H            0.21505510042508        0.55770834979938       -0.01692675298123
H            2.13453849405468        4.26893581167836        1.27580357620544
H            0.65248098510808        6.21625316378038        1.29007157114589
H            0.57408787570710        7.30649910546107       -1.23239988175209
H            1.51621869768641        9.57379639764829       -1.10361915937519
H            0.37950967969625       11.31846343793533        0.22400077816902
H           -1.70554651753238       10.77181410177177        1.42939092258902
H           -2.64064657324746        8.50066653643421        1.31703698681528
H           -3.03268298956949        4.54251580407241        1.14490642376438
H           -5.46909291546340        4.24003672744462        1.02063475164927
H           -6.85311939025179        5.81980513284427       -0.27852101094954
H           -5.77516688933505        7.70133370517367       -1.46070070582609
H           -3.33681396046756        7.99507770236558       -1.35491056885663
H           -2.01374366040189        4.20467464547220       -1.37655424718868
H           -0.53178967927519        2.25834108260847       -1.39009609918381
H            3.61398702378917        3.10449642284530       -0.16229766091298
H            5.08419326678991        1.16834378874935       -0.16585187658413
H            6.06279085020320       -0.04832660696342        2.05024379476545
H            7.89131085886408        1.60503330685554        2.28757598014112
H            9.36437554629572        0.52063704726150       -1.58563512291642
H            7.53530580309721       -1.13214749095078       -1.81432434837538
H            6.41561093753201       -5.21210094310806       -1.41335477009338
H            8.56000776839637       -6.45725038841791       -1.49601860389740
