113
 energy: -178.063932273306 gnorm: 0.000066905754 xtb: 6.7.1 (edcfbbe)
N           11.89606981549525       -4.85212063722366       -0.13095733768333
C           10.85484172689952       -4.36336957296657       -0.10206512068997
C            9.58451284461233       -3.76943067588535       -0.06445311588937
C            8.48893165102475       -4.46516816334331        0.47873766679915
C            7.25545773312461       -3.87700225399093        0.52093893544969
C            7.05274924909094       -2.55984027437429        0.04334457027425
C            5.73364520970938       -2.03674618918532        0.12113950538438
N            4.67178893129326       -2.83762830909321        0.21925630928337
C            3.59368489957489       -2.06480095359608        0.14284647912858
C            2.23495088146468       -2.47064406239331        0.14482947972397
C            1.88525950801795       -3.82550685160866        0.19094506207852
C            0.56779837114893       -4.21061615305118        0.16055761024682
C           -0.44062209980164       -3.24351505527362        0.09111114722490
C           -1.85036341485464       -3.62896199870149        0.06115636667446
C           -2.81828464674749       -2.87275728063193        0.72775606278577
C           -4.14691353609051       -3.23078634754962        0.70152427275717
C           -4.56457500753720       -4.35829652741295       -0.01088044965982
N           -5.91038680543789       -4.71359715007532       -0.05274664094202
C           -6.28210447267462       -6.06378505075086       -0.10171203708295
C           -5.57981870547475       -7.01742845515402        0.63474544632305
C           -5.95132387188906       -8.34672175072276        0.58166300838095
C           -7.02707934961601       -8.74404942521818       -0.19579732226508
C           -7.73063505109031       -7.79926416748072       -0.92517279481161
C           -7.36304166952403       -6.46844093656273       -0.88439950275136
C           -6.90163655696322       -3.72463254977122       -0.04402505303291
C           -8.09152969563175       -3.92560519506178        0.65554589347427
C           -9.06865222637847       -2.94943238131617        0.65902637095741
C           -8.87508859453843       -1.75998064821847       -0.02460247888822
C           -7.69457043085228       -1.55523305610781       -0.72031461456545
C           -6.71460459922517       -2.52840121831603       -0.73693711979563
C           -3.60235973435862       -5.11998402740224       -0.67998160244919
C           -2.27335292446555       -4.76382865091202       -0.63547461897050
C           -0.08639495239516       -1.89456922722559        0.05146109572640
C            1.23865364028097       -1.46837615856056        0.07833790873169
C            1.61819278955379       -0.05725715781899        0.06887192233691
C            0.66575379220214        0.94231951610536        0.05783865332002
C            0.97399857030684        2.31136447621654        0.12096760374303
C           -0.07172676701049        3.30701831965402        0.08899607609652
C            0.07498491192595        4.55179668104123        0.72617028995107
C           -0.92555905449321        5.49108095711560        0.70803363899174
C           -2.12962409662878        5.24080329544799        0.03705115573196
N           -3.14686966616133        6.18874929732573        0.01805479411160
C           -2.83708978649575        7.55451521744452        0.00530367468554
C           -1.75309322045721        8.02615667002152       -0.73554723293076
C           -1.45210796951821        9.37397554038645       -0.74270853811107
C           -2.22526749935777       10.26936346377846       -0.02108887026384
C           -3.30543340715248        9.80572926390624        0.71281776744935
C           -3.61184231941981        8.45923696057650        0.73153215319332
C           -4.48671065097046        5.78476104261170        0.00765278592726
C           -4.89655664154882        4.67314301173919        0.74507749982689
C           -6.21910972587229        4.27623614570626        0.72548354750531
C           -7.15228904590042        4.98064160095397       -0.01834706634261
C           -6.75144033545747        6.08917665516292       -0.74692904135821
C           -5.43009464617829        6.49049353785597       -0.74008051109504
C           -2.28378205428628        4.01092550132434       -0.61545983641219
C           -1.28421600161660        3.07153548390229       -0.58409575357615
C            2.33539467190640        2.66497099098888        0.24118887152174
C            3.30870775700698        1.71417418996584        0.21901031282076
C            3.00671231447531        0.32994267045058        0.09626873794678
C            3.96172391085934       -0.68344575563423        0.04324373577581
N            5.34367452692329       -0.69062342825602        0.02437322849884
C            6.20746439118312        0.40312111375174       -0.03137999414518
C            7.19126505119887        0.56770397103998        0.95128142387715
C            8.05255917763324        1.63780579831570        0.89492871372021
C            7.95424913748090        2.56491664000313       -0.15110727261965
C            8.83105753980008        3.66408503782628       -0.20992497770146
N            9.54080076319411        4.56636016429319       -0.25896085870391
C            6.97574763988893        2.39530720319624       -1.14010290449971
C            6.11156247121232        1.32761468805170       -1.07910810301871
C            8.15232579151233       -1.88834377817919       -0.53529491701360
C            9.38688811567572       -2.48105371662196       -0.58689050277469
H            8.63734749237103       -5.46431787643827        0.86168968492171
H            6.40582070570787       -4.39754076905757        0.93308834999441
H            2.68327105159696       -4.54901888857119        0.24794513685166
H            0.30570115689337       -5.25641570834592        0.21591190556446
H           -2.51688331149772       -2.01372961068452        1.30866165742369
H           -4.87547180080589       -2.64708316988441        1.24493741748619
H           -4.74913777109691       -6.70669617881640        1.25128913575072
H           -5.40209333828384       -9.07587086335955        1.15846725752041
H           -7.31571506506461       -9.78325814358692       -0.23250985372406
H           -8.56732337863035       -8.10146980671163       -1.53727573189579
H           -7.90565700355311       -5.73396353940398       -1.46137778980409
H           -8.23940893381220       -4.84758414187635        1.19835608991190
H           -9.98432442294367       -3.11571295321408        1.20670177626753
H           -9.63984990889551       -0.99848445441093       -0.01656198737300
H           -7.53857580574985       -0.63415593293045       -1.26233199948201
H           -5.80099987043799       -2.37312326011909       -1.29185266154331
H           -3.91187499237216       -5.98543371011009       -1.24719664756302
H           -1.55122005087152       -5.35157383092266       -1.18202893695907
H           -0.88678310140533       -1.17677214061633       -0.02945212297456
H           -0.37840212579465        0.67652735337159        0.04684542022364
H            0.97490535479462        4.76094951143075        1.28361345008013
H           -0.79841755986968        6.42648681497739        1.23317078454825
H           -1.15890626824376        7.33019303416518       -1.30923601806660
H           -0.61305301884975        9.72848085700072       -1.32246435024405
H           -1.98777889677823       11.32195665441625       -0.03097972428946
H           -3.90941680470784       10.49666183979844        1.28177189704266
H           -4.44682230246449        8.09674892117920        1.31305644156057
H           -4.17292651749891        4.13292198981893        1.33759864399900
H           -6.52478473033063        3.41595199263004        1.30233437772587
H           -8.18539851456198        4.66882512359828       -0.02897592262507
H           -7.47170119809890        6.64113053939803       -1.33215284302324
H           -5.11668653999305        7.34708661678081       -1.31847951935599
H           -3.19311122027051        3.81508928443315       -1.16498985675944
H           -1.41915706329244        2.15108041091621       -1.13152906415945
H            2.61434356756375        3.70485266851561        0.31691836492579
H            4.33817518158262        2.01582321964629        0.31913216610349
H            7.26119713748582       -0.15104053736951        1.75401515273811
H            8.80499827540184        1.77466767961497        1.65706253593478
H            6.91212751849635        3.10439352312371       -1.95216155233835
H            5.36026780580917        1.18535719020951       -1.84225084034217
H            8.02073361739488       -0.91796317891289       -0.98645049407852
H           10.22006285836579       -1.96279067698465       -1.03934756014766
