113
 energy: -178.063905264422 gnorm: 0.000132068933 xtb: 6.7.1 (edcfbbe)
N           12.11947130733754       -4.29503955323789       -0.20055082941711
C           11.05513536347253       -3.85892019228175       -0.16901771734310
C            9.75705935587046       -3.32887669423768       -0.12750956870067
C            8.69049941879310       -4.09527775798408        0.37713973718846
C            7.43008873773216       -3.56807897725272        0.42643141502321
C            7.16942116703500       -2.24510510899331       -0.00521436156681
C            5.82717558042136       -1.78684981875026        0.08064066761649
N            4.80302435531978       -2.63873222955238        0.14792793993893
C            3.69055758363902       -1.91474060563641        0.09173404457011
C            2.35184610362914       -2.38311754437811        0.08453478403394
C            2.06299724804221       -3.75302637424155        0.10019413302088
C            0.76343255667879       -4.19631028758558        0.07596372625658
C           -0.28738634801707       -3.27367741859274        0.04736939247253
C           -1.68149405757287       -3.71340564246450        0.03420189112702
C           -2.66050372274862       -3.01097666684926        0.74228429580678
C           -3.97765265530427       -3.40858329050077        0.72413399668434
C           -4.37287860520031       -4.52230846831952       -0.02199203425917
N           -5.71034691794333       -4.90824690752183       -0.06273012844319
C           -6.05349120464549       -6.26349588762685       -0.15322510733204
C           -5.31973220646010       -7.22657192952985        0.53894958125243
C           -5.66438070807868       -8.56088644047408        0.44571338167491
C           -6.74403357983470       -8.95431632568640       -0.32830581559508
C           -7.47854334706679       -8.00040574197030       -1.01398768911739
C           -7.13801664843118       -6.66427046436521       -0.93304415880905
C           -6.72207943234062       -3.94126289295494       -0.00959724692470
C           -7.89761017755221       -4.18860301106375        0.69918441592632
C           -8.89324524355815       -3.23250189083172        0.74837019732929
C           -8.73261620461750       -2.01767780134626        0.10185106692813
C           -7.56672959635523       -1.76711535495866       -0.60349210937862
C           -6.56865922006279       -2.71978747409718       -0.66583178582839
C           -3.39836443895685       -5.23468268557348       -0.72653097299200
C           -2.07970833237722       -4.83991930874841       -0.68945899111786
C            0.00634899040211       -1.90998340366937        0.03256281782978
C            1.31112763905991       -1.42563135827136        0.04831259644376
C            1.62523842800649        0.00104725198460        0.06171798293579
C            0.62786562020761        0.95546705193816        0.04809012923261
C            0.87079640576370        2.33579438185972        0.13923996216986
C           -0.22239390322004        3.27896730566450        0.10188363854274
C           -0.15700077055752        4.51400215062779        0.77022586187880
C           -1.20791915200466        5.39693852489440        0.75295065779452
C           -2.38238639276441        5.09724214705292        0.05053492322244
N           -3.45367948976968        5.98373767069144        0.03584802514795
C           -3.22806376354048        7.36532303085816        0.06822429766795
C           -2.15759240383160        7.92329316651450       -0.63118491368810
C           -1.93974297140305        9.28650662979653       -0.59320106631879
C           -2.78351441557205       10.11197324034656        0.13266578953243
C           -3.85076481875281        9.56250996857198        0.82505127309014
C           -4.07431265550828        8.19995919534980        0.79866095838392
C           -4.76591571487068        5.49916736949375       -0.01455567488620
C           -5.12188294076124        4.34671919400903        0.68730331155031
C           -6.41622924696237        3.86910682513390        0.62713611242172
C           -7.37464465301217        4.53224290373336       -0.12252996876595
C           -7.02776976018889        5.68110176455165       -0.81546707282736
C           -5.73459269810369        6.16340179938926       -0.76778962689524
C           -2.45313020421560        3.87923382445440       -0.63766192938517
C           -1.40422609774439        2.99553614295698       -0.60629909763979
C            2.21130918530927        2.74969464703767        0.29506439934968
C            3.22836050559844        1.84559841858337        0.27021668387303
C            2.99369862463619        0.45177207202553        0.11140553206991
C            3.99451232897579       -0.51500341698692        0.03744242063563
N            5.37535275231629       -0.45779401096838        0.02520670203664
C            6.18724556386571        0.67651690319841        0.01402972486819
C            7.15317191110753        0.85424843177729        1.01196657835929
C            7.96256924286774        1.96551339605297        1.00068016577897
C            7.82915384041491        2.92191417970110       -0.01461126857003
C            8.65184909420075        4.06363561084374       -0.02632649805140
N            9.31720227698993        5.00035390892399       -0.03651350853800
C            6.86944203991861        2.73916306521344       -1.01951678496809
C            6.05709402767297        1.62990385431597       -1.00359342809404
C            8.24110983188615       -1.50232254489750       -0.54828770136284
C            9.50297164879175       -2.03356613582671       -0.60677101328508
H            8.88265890238654       -5.09963955714415        0.72542206978530
H            6.60224566477894       -4.14283256877132        0.80986714420552
H            2.89291716145574       -4.44139190303630        0.13114599336000
H            0.54858214749122       -5.25385143111875        0.10750463607001
H           -2.37549873148422       -2.16296627931366        1.34714956184528
H           -4.71472342012083       -2.86604015036041        1.29784212190590
H           -4.48613615292180       -6.91947187161738        1.15336906400677
H           -5.09093286462360       -9.29743759127067        0.98854795205402
H           -7.01172421934806       -9.99754987941800       -0.39619291788229
H           -8.31853098577112       -8.29925618103113       -1.62321876297019
H           -7.70489615742070       -5.92229974520201       -1.47610930519411
H           -8.01963135719696       -5.13045499300118        1.21354892448282
H           -9.79736184686071       -3.43451612315186        1.30317043790075
H           -9.51156138910224       -1.27195268238994        0.14615670967366
H           -7.43632280959794       -0.82591070040915       -1.11701022248435
H           -5.66632915149770       -2.52834944292794       -1.22785548575543
H           -3.69044280568988       -6.09079702079931       -1.31670191858098
H           -1.34812554808500       -5.38828061668709       -1.26375944692514
H           -0.82660375353037       -1.22730393676224       -0.01622441640015
H           -0.40246515241755        0.64251766316032        0.01077908205222
H            0.71878033744795        4.75799893542391        1.35153496987491
H           -1.14399674449855        6.32410632954601        1.30356514387056
H           -1.50828347906567        7.28178064906879       -1.20859028760823
H           -1.11020364302036        9.70797726491173       -1.14095844024063
H           -2.61076214802017       11.17684514942528        0.15817475738734
H           -4.50969850825182       10.19866177840662        1.39690421516568
H           -4.89932675133175        7.77076353247822        1.34811730865724
H           -4.37915787767351        3.83791478978182        1.28400173001694
H           -6.68026262318715        2.97768323625690        1.17667916752673
H           -8.38570315742473        4.15725157745327       -0.16525600988727
H           -7.76787971927948        6.20134112764225       -1.40495329291534
H           -5.46242412062158        7.05170828229404       -1.31857356619695
H           -3.33783182366046        3.64859931378055       -1.21325435250964
H           -1.47545377749893        2.08379102429765       -1.17971468903012
H            2.43931304643340        3.79957022508330        0.39892598579417
H            4.24079339615115        2.19227232438799        0.39517723440865
H            7.25024515274266        0.11279811124521        1.79087845460890
H            8.70055922935020        2.11220931779710        1.77501509692898
H            6.77927846658213        3.47150175540354       -1.80808441462476
H            5.32060748858724        1.47785213220600       -1.77917289481790
H            8.06762883126068       -0.52381471157926       -0.96649056878989
H           10.31479227736944       -1.46048887335526       -1.03106386803564
