  113
       -178.13562246
 N         12.3407495187       -3.9715664980        0.3837634037
 C         11.2554013590       -3.6062492506        0.3261050659
 C          9.9195535736       -3.1515436892        0.2566752350
 C          8.9154307758       -3.8157976145        0.9654099577
 C          7.6184830691       -3.3589388975        0.9017432227
 C          7.2936439557       -2.2321394761        0.1394838671
 C          5.9030490328       -1.8184715759        0.1173048733
 N          4.9137182563       -2.6699893295        0.2163790769
 C          3.7729790632       -1.9410393058        0.1355727696
 C          2.4317932786       -2.4156644578        0.1576983974
 C          2.1278765012       -3.7787205042        0.2479140681
 C          0.8243068178       -4.2064188790        0.2441217740
 C         -0.2169245750       -3.2731589204        0.1591749297
 C         -1.6288589710       -3.6762648848        0.1602239880
 C         -2.5591327204       -2.9517351113        0.9051788618
 C         -3.8997599946       -3.2636725830        0.8664372595
 C         -4.3610274740       -4.3026739320        0.0565833261
 N         -5.7290301434       -4.5715675550       -0.0294885913
 C         -6.1850729077       -5.8866138392       -0.1733769085
 C         -5.5419709825       -6.9348796846        0.4842927911
 C         -5.9928002417       -8.2317426188        0.3333540398
 C         -7.0924620629       -8.5047666991       -0.4635373112
 C         -7.7385235460       -7.4662977509       -1.1141075492
 C         -7.2898726803       -6.1672702386       -0.9770263601
 C         -6.6463781188       -3.5142292216        0.0258150408
 C         -7.8609050092       -3.6651817938        0.6942898629
 C         -8.7584899158       -2.6166885415        0.7524285782
 C         -8.4600268376       -1.4019851581        0.1571426649
 C         -7.2551679135       -1.2459674895       -0.5085113516
 C         -6.3563138416       -2.2921847451       -0.5816007925
 C         -3.4313617031       -5.0496512634       -0.6682824920
 C         -2.0869816991       -4.7452200293       -0.6060970950
 C          0.0868744766       -1.9265163168        0.0644452824
 C          1.4023031898       -1.4537968271        0.0625327987
 C          1.7200859242       -0.0381399648       -0.0098130163
 C          0.7106619965        0.9256541834       -0.0455530059
 C          0.9662671338        2.2853679282       -0.0662418677
 C         -0.1639676152        3.2194599776       -0.0973479212
 C         -0.1834786744        4.3724684518        0.6847278035
 C         -1.2969874364        5.1856235917        0.7242290998
 C         -2.4268548549        4.8769315477       -0.0347609153
 N         -3.5797792379        5.6611664397        0.0351433511
 C         -3.4817396603        7.0484447828        0.1908884516
 C         -2.4667364010        7.7600040711       -0.4480159792
 C         -2.3689814594        9.1283884890       -0.2873748261
 C         -3.2816522489        9.8096343622        0.5010671837
 C         -4.2952375345        9.1081541955        1.1331585927
 C         -4.3962209866        7.7385640647        0.9861129749
 C         -4.8376261600        5.0479506199       -0.0339450263
 C         -5.0519806836        3.8047970620        0.5620385634
 C         -6.2891072057        3.1959400124        0.4804762274
 C         -7.3342099347        3.8182397053       -0.1826434991
 C         -7.1299594985        5.0570470957       -0.7678746579
 C         -5.8928667380        5.6686112066       -0.7014833244
 C         -2.3914256723        3.7521616144       -0.8608003947
 C         -1.2826437000        2.9364703554       -0.8819418179
 C          2.2968093592        2.7152535581       -0.0206870244
 C          3.3179165438        1.7987113671        0.0007585118
 C          3.0661741108        0.4181915439       -0.0171594886
 C          4.0757497408       -0.5844983598       -0.0016576607
 N          5.4519906209       -0.5197609427       -0.0245852590
 C          6.2677512582        0.6137261724       -0.1695823310
 C          7.1471846555        0.9680253831        0.8508215394
 C          7.9748000524        2.0612518992        0.6972893389
 C          7.9276415932        2.8079193508       -0.4809749694
 C          8.7759879979        3.9283689292       -0.6415008577
 N          9.4622522619        4.8357649910       -0.7770626032
 C          7.0454696660        2.4528236241       -1.5035819124
 C          6.2209177424        1.3585404645       -1.3479348972
 C          8.2975802692       -1.5931153110       -0.5906957206
 C          9.5993228647       -2.0443776067       -0.5299874166
 H          9.1657552068       -4.6819053906        1.5597124370
 H          6.8280633654       -3.8600977594        1.4376345583
 H          2.9486211706       -4.4758545347        0.3163581936
 H          0.5921777529       -5.2581271897        0.3245826462
 H         -2.2202469713       -2.1476982819        1.5423266197
 H         -4.6047386573       -2.6993992901        1.4592387684
 H         -4.6912958392       -6.7233698351        1.1155818163
 H         -5.4866565289       -9.0341442075        0.8497065895
 H         -7.4438973434       -9.5191028705       -0.5761840101
 H         -8.5943089673       -7.6699508900       -1.7408520840
 H         -7.7891837984       -5.3604937803       -1.4934892278
 H         -8.0916091277       -4.6071800071        1.1698848070
 H         -9.6945192215       -2.7468336626        1.2753878754
 H         -9.1620818027       -0.5836922638        0.2102366541
 H         -7.0162254156       -0.3047823148       -0.9823844973
 H         -5.4225773584       -2.1708347931       -1.1110575105
 H         -3.7738543206       -5.8598067182       -1.2952864090
 H         -1.3848355607       -5.3172509013       -1.1949643386
 H         -0.7388124850       -1.2401597838       -0.0306138471
 H         -0.3213593053        0.6174571785       -0.0261442198
 H          0.6681390542        4.6105236560        1.3051656973
 H         -1.3077924041        6.0573054664        1.3620127504
 H         -1.7603048693        7.2324439488       -1.0722979108
 H         -1.5781720118        9.6673314971       -0.7882897395
 H         -3.2032637523       10.8792418887        0.6227013652
 H         -5.0082090359        9.6303467914        1.7540239204
 H         -5.1811438107        7.1923950812        1.4884558342
 H         -4.2425495990        3.3224307520        1.0903317041
 H         -6.4399150346        2.2324276846        0.9454418141
 H         -8.3009254408        3.3416657864       -0.2420790570
 H         -7.9379885955        5.5481868610       -1.2899397881
 H         -5.7340160147        6.6291810001       -1.1693670023
 H         -3.2461876134        3.5214914504       -1.4795820215
 H         -1.2716588171        2.0759112888       -1.5348752966
 H          2.5212219620        3.7716131306       -0.0182253485
 H          4.3355679375        2.1534642089        0.0489201424
 H          7.1746532984        0.3813518664        1.7567447193
 H          8.6579809091        2.3452107260        1.4833263363
 H          7.0165566273        3.0344725021       -2.4126423949
 H          5.5340436818        1.0715306974       -2.1304193730
 H          8.0622660170       -0.7570856806       -1.2312528769
 H         10.3750109080       -1.5490114669       -1.0952674172
