109
 energy: -164.299239658706 gnorm: 0.000130553837 xtb: 6.7.1 (edcfbbe)
C            6.68116028401321        2.31124167431360       -1.24369723631823
C            7.12780251625324        1.06028686459842       -0.54966977746104
C            8.47264955218645        0.73786656473576       -0.47078808470563
C            8.89630950381584       -0.42200406928669        0.16994586369451
N           10.26386988705133       -0.72253650755085        0.24325968296167
C           11.25563508826338        0.13287764244224        0.67830779936293
C           11.15345631486309        1.42287772616504        1.17960134572767
C           12.31659629509842        2.05618902966546        1.57321404510065
C           13.55535404645052        1.42530222367257        1.48184386831339
C           13.66069427482342        0.13333550022097        1.00654774740674
C           12.50570513033860       -0.52416943285055        0.60466309696082
C           12.24460985011922       -1.84045027979894        0.09316951994162
C           13.05557686071838       -2.92573626285953       -0.21088616985150
C           12.46962257498601       -4.06687410893210       -0.72129216602196
C           11.09554406449336       -4.12904805867874       -0.94286026592023
C           10.26794313422528       -3.06266827580331       -0.64827023714507
C           10.84800637316839       -1.92130347880091       -0.11307493874092
C            7.95680408764910       -1.27706089678044        0.73519850563737
C            6.61369418657964       -0.96490210757546        0.65074348598436
C            6.18832739541239        0.19539538425400        0.01781366539352
C            4.74198744299407        0.50508089651079       -0.05874818581637
C            4.02677613089729        0.17315508534400       -1.20209802165695
C            2.67923823109263        0.45668213695336       -1.30536713084424
C            2.02560486358100        1.07747501050773       -0.24557451976565
N            0.66151474663906        1.37945355608807       -0.33495109606694
C            0.09021351735800        2.60931694769340       -0.07682795322843
C            0.69021553320142        3.80229930696606        0.30055994411126
C           -0.12204341595915        4.90750567733988        0.47467745358985
C           -1.49727109931129        4.83812694148866        0.27002346297408
C           -2.09684732301696        3.65964216149619       -0.13441501470560
C           -1.30226343155951        2.53821594445958       -0.31643365862435
C           -1.57525265173016        1.19043439277827       -0.74053303881121
C           -2.73626458041191        0.53982973908980       -1.11619466243197
C           -2.67021756568278       -0.82107473486683       -1.43334265561018
C           -3.85040357052803       -1.58114400395098       -1.85542351756100
O           -3.67786978687484       -2.50404203191911       -2.71251192689441
C           -5.15478167422088       -1.27506571578415       -1.34541311090101
C           -6.27848217979797       -1.80734436534700       -2.02475819550207
C           -7.55140200194256       -1.56775872157431       -1.58220362104046
C           -7.76119126942775       -0.80760282018172       -0.42758567033951
N           -9.08354400810470       -0.54106092089360        0.03238086688074
C           -9.67559795713892        0.65846842565660       -0.29825388688498
C           -8.97195366528063        1.57754707665287       -1.08951284617460
C           -9.53092441078038        2.78752334102362       -1.43209071228331
C          -10.80700029123450        3.10647077549973       -0.99471894506697
C          -11.50915479513646        2.19862091910684       -0.22336340776056
C          -10.97217918836792        0.97076736119353        0.13737779175139
C          -11.79151105507619        0.00842591597179        0.97149055457734
C          -12.14200841503887        0.68714576970714        2.30928917391250
C          -13.07781492153521       -0.33948864352980        0.19847699225610
C          -11.03701023980971       -1.27212995586382        1.26195870919189
C          -11.63854462954279       -2.26926194447311        2.01681555326132
C          -10.98842166581341       -3.45204133394931        2.31801744913533
C           -9.69516900536003       -3.65547873224119        1.86240229545877
C           -9.07307125800020       -2.68510310995480        1.11056601635113
C           -9.73200335794684       -1.48861827220054        0.79415921211734
C           -6.66466234316150       -0.32307616675047        0.28938207347557
C           -5.38642539017724       -0.55534716325241       -0.15401807514006
C           -1.42047940975860       -1.47436334236045       -1.44758898878142
C           -0.25869494133125       -0.83356043032484       -1.08859714451580
C           -0.33355667316287        0.51200705565424       -0.74037738635373
C            2.73775583671416        1.40237714861189        0.90551171149733
C            4.09099303807248        1.12681232487294        1.01023452193386
C            4.84866536232109        1.47839133647440        2.25460846594903
H            6.00572745626195        2.88312381864546       -0.60907580321630
H            7.53270556072538        2.93397424605503       -1.50581978566812
H            6.13865173072990        2.06416674963641       -2.15567170097266
H            9.20797530391614        1.38643175304798       -0.92468065453337
H           10.19605915539756        1.91356227146206        1.27092580641477
H           12.26383441354352        3.06184540030786        1.96389801056802
H           14.44177670851108        1.95540747516648        1.79708666141782
H           14.61867103146199       -0.36130883652694        0.95052515115976
H           14.12232763799967       -2.87181672070647       -0.05369571146087
H           13.08201716186528       -4.92301900478729       -0.96231910176234
H           10.66791008117985       -5.02995973451098       -1.35767194460613
H            9.20669124355306       -3.11405604674768       -0.83967828703927
H            8.28213364045345       -2.16989014874087        1.24708338033594
H            5.87887296700149       -1.62788657675439        1.08441134779376
H            4.53907728727553       -0.30957693495609       -2.02184527595479
H            2.13521044970627        0.21887280796183       -2.20650242682700
H            1.75851452355921        3.87253979343170        0.43948967351131
H            0.32149147263070        5.84639402510896        0.77193416308267
H           -2.09903045670801        5.72202064640564        0.42056780968793
H           -3.16094173801614        3.61007516629750       -0.30984884703848
H           -3.66648544382549        1.08184419810105       -1.18131399996126
H           -6.09630956231768       -2.39471222740316       -2.91169894997798
H           -8.40528272762551       -1.95819122631631       -2.11720454294609
H           -7.98154054639585        1.32454119345289       -1.43319154256643
H           -8.97308543426686        3.48205657085888       -2.04152463558602
H          -11.25422926116015        4.05321977684080       -1.25594994750725
H          -12.50434949302909        2.46014816062927        0.10253795928844
H          -12.69918683415990        1.60475434728770        2.14347989601533
H          -12.74447814655205        0.03038425562244        2.93024428681637
H          -11.23015072350872        0.93137912240459        2.85091312021345
H          -13.70163538014171       -1.01963603759114        0.77133091369243
H          -12.82455843358187       -0.81772270763757       -0.74575372947198
H          -13.65556323293938        0.55545785596607       -0.01425373271308
H          -12.64313625934348       -2.12512029526354        2.38435688292671
H          -11.48624408452602       -4.20714718716142        2.90671716787977
H           -9.17185989858056       -4.57043621300723        2.09431994909258
H           -8.06552011327875       -2.83969964346468        0.75855896240919
H           -6.83683208994182        0.22722866915971        1.20399024027702
H           -4.55123704202669       -0.21685248366619        0.44001100611733
H           -1.40185790092472       -2.51638387794047       -1.72719208516029
H            0.67986050876689       -1.36662045045759       -1.06351696492575
H            2.21777696430838        1.86160799229075        1.73376510164599
H            4.23626059308105        2.07506630417169        2.92589168128936
H            5.75243669596416        2.03470052996026        2.01030987059299
H            5.15581354010128        0.57352210415424        2.77801859973299
