109
 energy: -164.381447555811 gnorm: 0.000046593156 xtb: 6.7.1 (edcfbbe)
C            6.88701636115167        2.37725854816765       -1.22363987452753
C            7.27424994039573        1.08149904384696       -0.57758962193638
C            8.60774593021610        0.74612327390442       -0.40815980794289
C            8.97582091604885       -0.45563189496330        0.18838401058997
N           10.33099541303353       -0.76821534634291        0.36115107976384
C           11.28007372327931        0.04849775909088        0.94253138096438
C           11.13589563254007        1.30582330507764        1.51150016209893
C           12.25810389757734        1.90058422916862        2.05538586062171
C           13.49679191782898        1.26308421923142        2.04534967753711
C           13.64157403398525        0.00226355179737        1.50228073838374
C           12.52797400132578       -0.61635848955612        0.94958961487977
C           12.31165114841933       -1.89624716900266        0.33550272692372
C           13.14330440920855       -2.97006071123170        0.04615002528629
C           12.60449158572680       -4.07234567298689       -0.58636941654662
C           11.25820889183630       -4.10647946639385       -0.94331709965871
C           10.41099727599914       -3.05089201033209       -0.66620135800564
C           10.94145971157899       -1.94998857628254       -0.00899389648789
C            7.99149979785313       -1.34122128730066        0.61345417466503
C            6.66075370111339       -1.01588724649211        0.43814456944043
C            6.29078050497259        0.18736050910410       -0.14804397282956
C            4.85351667943162        0.50593258121963       -0.31174894279466
C            4.21862647016496        0.23569205457066       -1.51640484966439
C            2.87408323342060        0.50497917610323       -1.68739489222529
C            2.14613062437466        1.04456168716944       -0.63386805061321
N            0.77279048126420        1.30278717662083       -0.77774303796811
C            0.13813387005689        2.49289867093902       -0.47652833352982
C            0.67776848840392        3.69866014982498       -0.05323772501635
C           -0.18982393805549        4.75382429508864        0.15507949130051
C           -1.56056903877735        4.62206855261794       -0.05635760952216
C           -2.10061010047236        3.43048348701621       -0.49743642041783
C           -1.24797370988856        2.35660483905382       -0.71586783589496
C           -1.44997981544340        1.01057738239239       -1.17627968786734
C           -2.57600165079360        0.29071960552902       -1.53685995139832
C           -2.42364367430702       -1.03511435796609       -1.93024549101188
C           -3.57463840986471       -1.85766226545729       -2.35667889837850
O           -3.46230694335202       -2.76400721015158       -3.15993460213523
C           -4.89319661410475       -1.53543541414313       -1.74328930853814
C           -6.04678996854397       -1.68547896860911       -2.50917445304771
C           -7.28873035801963       -1.42966307820089       -1.96261977099985
C           -7.39108851291067       -1.04232923820759       -0.63114697359372
N           -8.66672695643877       -0.78708959262057       -0.05803182608435
C           -9.22084918196724        0.47506920668686       -0.18816048245878
C           -8.52091652985010        1.46819670698000       -0.87950679137074
C           -9.04748209944865        2.73388133665471       -1.02806884558956
C          -10.28402270596553        3.03287223331141       -0.48561619843705
C          -10.97448285771410        2.05376850773148        0.20481871394641
C          -10.46871662384251        0.77189615634597        0.36979012879177
C          -11.27039554496019       -0.25526962483919        1.14697340849112
C          -11.48200567540014        0.26825708564599        2.57936954410921
C          -12.62684728348928       -0.45605552754486        0.44717035993441
C          -10.55888721450154       -1.59339305499492        1.21911116685368
C          -11.15559432534488       -2.65094215609119        1.89152476316752
C          -10.55695803126650       -3.89387944484318        1.98376392003838
C           -9.32672946112813       -4.09861166988324        1.38584160230465
C           -8.71060488664709       -3.06545949564529        0.71184582387758
C           -9.31130744036733       -1.80640567286468        0.62410131219167
C           -6.24523676435472       -0.91417208298383        0.14599242270853
C           -5.00266112959533       -1.15591388303875       -0.40735452186569
C           -1.14781132545106       -1.62029915188848       -1.96357010980363
C           -0.01926161323001       -0.92722278767600       -1.58918438414145
C           -0.17080836396990        0.40040287618947       -1.20425894218762
C            2.77880548832613        1.31981848608262        0.57344619092432
C            4.12863251635400        1.06081701785363        0.74640113655642
C            4.80177311913677        1.35294046171505        2.05274282101439
H            6.15999163021163        2.91033917177116       -0.61265380409381
H            7.75722574619898        3.01152855707406       -1.37181210137484
H            6.42417218681868        2.19241595674672       -2.19257518563309
H            9.37878075596431        1.41893750398083       -0.75463257737359
H           10.17660432793455        1.80051475264518        1.54063992033281
H           12.17222593475097        2.88045228256241        2.50181830318061
H           14.35066558307431        1.76273178116142        2.47821635679905
H           14.59780655187046       -0.49882858884953        1.50886236901570
H           14.18991659269405       -2.93680494124504        0.30891921750419
H           13.23318723556274       -4.91920019103265       -0.81807036786404
H           10.86856952129530       -4.97646288785179       -1.45123591158383
H            9.37313035091072       -3.07973255926102       -0.96231019259446
H            8.27214912630111       -2.26801883300449        1.09006182197554
H            5.89152226611102       -1.70117710408806        0.76430539289094
H            4.78905641695874       -0.19188678974021       -2.32820637093950
H            2.38983159875426        0.30896989564228       -2.63186118660208
H            1.74036545181446        3.81360434261470        0.09832400041944
H            0.20408627601738        5.70322416798046        0.48634230177680
H           -2.20516627818491        5.46990472386139        0.12058333522777
H           -3.16091050681433        3.33225866538539       -0.67466777962573
H           -3.54799349188760        0.76058431062621       -1.53401963505647
H           -5.95017242188587       -2.00119483583893       -3.53715474057188
H           -8.18577243328904       -1.53334246541830       -2.55476671546137
H           -7.55432373473164        1.24054497889489       -1.30294931055805
H           -8.48962480379774        3.48485883099011       -1.56765347631825
H          -10.70787804830037        4.01938789402584       -0.59576358517990
H          -11.93657128933559        2.30295020524121        0.62655567815740
H          -12.00498152618217        1.22062012650577        2.57156658695602
H          -12.06461725727518       -0.43533975482255        3.16758814638321
H          -10.51933823659521        0.40922835524139        3.06751404247436
H          -13.23887420851776       -1.17454393784848        0.98532050114003
H          -12.46980902496593       -0.82799038252916       -0.56363336797020
H          -13.17519744917480        0.47997862100704        0.38674245709214
H          -12.11770904826534       -2.50698262085535        2.35974892458544
H          -11.04910415617023       -4.69415197900216        2.51513918948804
H           -8.84377330025712       -5.06281555986790        1.44104821441123
H           -7.75260945465482       -3.23287186773876        0.24360697978961
H           -6.33965646684957       -0.62805164135293        1.18317963462923
H           -4.11576930950710       -1.07175264306243        0.20326637706280
H           -1.07561228673211       -2.64947885504953       -2.28146780697393
H            0.94990886435128       -1.40195817489444       -1.58927546986577
H            2.20022301274448        1.72590962681678        1.39065838612158
H            5.08890981951960        0.42434930270059        2.54504629192435
H            4.14015164186808        1.90552438404413        2.71494599698423
H            5.71099282614312        1.93129055143092        1.89619931634324
