  118
       -187.38613155
 C          6.1986758413        5.6824805230       -0.0041363745
 C          7.3830206806        5.3956213391       -0.6643409391
 C          7.8940865582        4.1130265175       -0.6460478596
 C          7.2232270209        3.0942507237        0.0316496810
 C          7.8044050578        1.7613463980        0.0074822182
 N          9.0960226170        1.5390379958       -0.0125718214
 C          9.2465778858        0.1904111131       -0.0253295806
 C         10.4589376998       -0.5562255333       -0.0248465901
 C         11.7139284496        0.0421442411        0.0065895893
 C         12.8573135725       -0.7384734817        0.0226708389
 C         12.7611082537       -2.1155254312        0.0035459325
 C         11.5154375511       -2.7504871713       -0.0350332012
 C         11.4040511167       -4.1702310590       -0.0695553523
 C         10.1953259049       -4.7728734631       -0.1355095239
 C          8.9894667963       -4.0134318243       -0.1660946236
 C          7.7444962700       -4.6418268939       -0.2653823457
 C          6.5856047691       -3.8975399991       -0.3231784029
 C          6.6322504051       -2.5155958830       -0.2524727766
 C          7.8489636657       -1.8479096582       -0.1207587806
 C          9.0597291335       -2.5998005781       -0.1050782683
 C         10.3345107757       -1.9680247164       -0.0481620330
 C          7.9957497107       -0.4341869538       -0.0284076031
 N          7.0799991695        0.5890190222        0.0020557480
 C          5.6766366480        0.5076911227        0.0203948144
 C          4.9390635963        1.0482257564       -1.0291654185
 C          3.5626582274        1.0214004930       -0.9860522379
 C          2.8841930182        0.4454876887        0.0951133859
 C          1.4283926163        0.4279458646        0.1301194855
 C          0.7310949632       -0.8096761637        0.2755164877
 C          1.4084081687       -2.0329362012        0.3245474705
 C          0.7277220850       -3.2423782100        0.4188493048
 C         -0.6511017213       -3.2546824891        0.4148896976
 C         -1.3522388774       -2.0573607216        0.3164140645
 C         -0.6959342463       -0.8226045526        0.2710726079
 C         -1.4151144478        0.4014335363        0.1206818257
 C         -2.8711808598        0.3945705436        0.0832802596
 C         -3.5568402244        0.9598713197       -0.9988097439
 C         -4.9333041284        0.9854501099       -1.0325099036
 C         -5.6637868269        0.4535014053        0.0265248391
 N         -7.0655770795        0.5628948657        0.0243684772
 C         -7.7552876548        1.7561084273        0.0314775239
 C         -7.1323536058        3.0701215400        0.0626451713
 C         -7.7632687935        4.1111363594       -0.6193478137
 C         -7.2086605092        5.3755924582       -0.6333668196
 C         -6.0200054322        5.6220440358        0.0352527510
 C         -5.4027908223        4.6009290794        0.7381661187
 C         -5.9543775723        3.3334569280        0.7604181400
 N         -9.0527323276        1.5722905877        0.0052941868
 C         -9.2425818091        0.2286696202       -0.0141599466
 C        -10.4764893347       -0.4816252516       -0.0289979345
 C        -11.7134125451        0.1536575111       -0.0079907242
 C        -12.8796601904       -0.5925667261       -0.0116771181
 C        -12.8242786207       -1.9717055271       -0.0392733616
 C        -11.5976178023       -2.6432717089       -0.0664589238
 C        -11.5281529082       -4.0654835520       -0.1078070353
 C        -10.3371258540       -4.7037095302       -0.1593575663
 C         -9.1088617567       -3.9804294930       -0.1693566930
 C         -7.8816307975       -4.6455232286       -0.2510904658
 C         -6.7002126172       -3.9362550821       -0.2877335287
 C         -6.7068150901       -2.5534329386       -0.2162464575
 C         -7.9050787015       -1.8500612638       -0.1039259206
 C         -9.1378719462       -2.5655839782       -0.1050682758
 C        -10.3938656977       -1.8963409718       -0.0604262275
 C         -8.0106430642       -0.4327343849       -0.0129593807
 C         -4.9992434165       -0.1218224674        1.1080595006
 C         -3.6219277047       -0.1573613032        1.1284776598
 C         -0.7177360264        1.6422842585        0.0004388011
 C         -1.3972404998        2.8654047646       -0.0316640322
 C         -0.7159858474        4.0760863496       -0.1013641323
 C          0.6632104091        4.0888499229       -0.0938017288
 C          1.3656859499        2.8906428554       -0.0177298646
 C          0.7084095225        1.6554744409        0.0064505844
 C          3.6423751275       -0.1027817020        1.1371399527
 C          5.0191524687       -0.0656654477        1.1075824715
 C          6.0493155880        3.3972586201        0.7200455271
 C          5.5417338938        4.6829580354        0.6938738158
 H          5.7947345569        6.6837416301       -0.0240356722
 H          7.9074152195        6.1753927180       -1.1964859790
 H          8.8152896128        3.8735191277       -1.1538130541
 H         11.7687648579        1.1193164383        0.0228555262
 H         13.8290491175       -0.2675247638        0.0502335273
 H         13.6551836332       -2.7226697195        0.0143013680
 H         12.3134093794       -4.7539891223       -0.0493735423
 H         10.1151459129       -5.8501782936       -0.1713702149
 H          7.7025611987       -5.7205043942       -0.3095429577
 H          5.6298530537       -4.3915063209       -0.4240783748
 H          5.7139520898       -1.9546391882       -0.3130390117
 H          5.4555094677        1.4867543125       -1.8700518602
 H          2.9919833883        1.4226076743       -1.8099162563
 H          2.4852846575       -2.0463971398        0.2696131657
 H          1.2851283951       -4.1654256977        0.4745644867
 H         -1.1924521578       -4.1874190933        0.4673529457
 H         -2.4284290912       -2.0889620452        0.2546756963
 H         -2.9917437312        1.3582057172       -1.8279721419
 H         -5.4558738426        1.4209127863       -1.8712323820
 H         -8.6880535485        3.9031534430       -1.1344575344
 H         -7.7019948456        6.1727043012       -1.1693559280
 H         -5.5820595127        6.6089750124        0.0180870494
 H         -4.4877534703        4.7921969241        1.2802714070
 H         -5.4773002289        2.5590172445        1.3409528942
 H        -11.7366970054        1.2318794133        0.0148816003
 H        -13.8371651567       -0.0928546168        0.0068782807
 H        -13.7360161936       -2.5520441291       -0.0438604684
 H        -12.4547657491       -4.6218275580       -0.1038243926
 H        -10.2885741390       -5.7827604953       -0.1990376722
 H         -7.8716311903       -5.7249065534       -0.2975540675
 H         -5.7580215760       -4.4582754879       -0.3724060190
 H         -5.7713077960       -2.0197540800       -0.2596909238
 H         -5.5726161233       -0.5233484512        1.9312881108
 H         -3.1096314527       -0.5734061955        1.9831401672
 H         -2.4749748979        2.8776077861        0.0140417428
 H         -1.2740890707        4.9995214041       -0.1442098189
 H          1.2044894295        5.0224602672       -0.1298056786
 H          2.4425509994        2.9220272751        0.0395961123
 H          3.1358785194       -0.5217984844        1.9937421171
 H          5.5988810382       -0.4710787749        1.9243309806
 H          5.5414610033        2.6391151523        1.2958046706
 H          4.6292131783        4.9056153585        1.2279846673
