118
 energy: -187.529165959889 gnorm: 0.000034675150 xtb: 6.7.1 (edcfbbe)
C            6.42807892942934        5.73292887321523        0.29202434434723
C            7.59779644782095        5.41357218680397       -0.37985341225685
C            8.04447994422122        4.10709773438956       -0.41186762497624
C            7.32247470253770        3.09554107232946        0.22396608862057
C            7.84631384542226        1.73944006477600        0.15968234919243
N            9.13059290462411        1.47208277428099        0.13004015422631
C            9.23139673853619        0.11843130452986        0.06905265079985
C           10.41839981030442       -0.66936573370060        0.03095036136476
C           11.69426381927395       -0.11789949681532        0.07070094050928
C           12.80986835317223       -0.93754291794847        0.03663323164397
C           12.66500129417714       -2.30868107904740       -0.03918137671936
C           11.39755635755845       -2.89735801332650       -0.08377566323110
C           11.23492384527215       -4.31085737445719       -0.17051320355206
C           10.00490658398573       -4.86818902629887       -0.23223201660247
C            8.82514987706252       -4.06687312733783       -0.21083062183789
C            7.55718726437180       -4.64882599870870       -0.29868146370148
C            6.42350246520578       -3.86418575473449       -0.30082147202871
C            6.52121900157895       -2.48700302789298       -0.19346340103053
C            7.76282629253333       -1.86449815139504       -0.07731435076126
C            8.94666207063045       -2.65852036179683       -0.10666041918686
C           10.24426580018512       -2.07413442302788       -0.04774988615781
C            7.96108278541652       -0.45868472248732        0.04811262666169
N            7.08054268574187        0.59700091047016        0.11914623748790
C            5.66896888927797        0.55988958434794        0.09104179429410
C            4.99226250845177        1.03630754086906       -1.02497318011437
C            3.61051642298974        1.02841136122507       -1.04523724632072
C            2.88673649726679        0.54797017696575        0.04272049926903
C            1.40879780462469        0.55082556505803        0.01897884409933
C            0.70755058935911       -0.66347167497538       -0.01721957349903
C            1.37623057821743       -1.91548973743815       -0.06770021765217
C            0.68421978027437       -3.08660892623547       -0.10973964627652
C           -0.72521088698716       -3.07982252624414       -0.11756588392316
C           -1.40473546775628       -1.90128132127361       -0.08785536598858
C           -0.72234705358922       -0.65686379439041       -0.03356736420531
C           -1.41320537130456        0.56285895968617       -0.02353665555957
C           -2.89275363154107        0.56858216558029       -0.03649054249057
C           -3.59031395170897        0.94171212467376       -1.18142256938526
C           -4.97267956821774        0.94334443416769       -1.19505630641153
C           -5.67417917081795        0.57172875602563       -0.05480704098614
N           -7.08594899272498        0.59196791675748       -0.06068917872265
C           -7.86888674454311        1.71811485314158       -0.16837206153994
C           -7.36763363966340        3.08022736818159       -0.27319082542076
C           -8.09626676091384        3.98876336861281       -1.04261745413694
C           -7.67527365140352        5.29844297010166       -1.16577673173157
C           -6.52564970580048        5.72363207788820       -0.51840699389596
C           -5.80921645550195        4.83383580924713        0.26444312900987
C           -6.22430296291984        3.52055611959477        0.39106924121518
N           -9.14883291834634        1.43006177367485       -0.16229672652787
C           -9.22939116676886        0.07869759971017       -0.04474159160297
C          -10.40476962374714       -0.72336766240521        0.03358293798227
C          -11.68833396355226       -0.18901937761247        0.01232078483520
C          -12.79165208464966       -1.02053042501386        0.10693511556541
C          -12.62675671679999       -2.38699858526145        0.21862155362780
C          -11.35109425202084       -2.95903037145668        0.23852811652029
C          -11.16797168081898       -4.36883968676184        0.34311947202959
C           -9.93036444599166       -4.91253848057993        0.34097866182519
C           -8.76267653872327       -4.09965259970928        0.23954272058406
C           -7.48720147629858       -4.67107933788565        0.21505502639689
C           -6.36562596897453       -3.87847352271203        0.09316027091339
C           -6.48279139524921       -2.50078163098806        0.01730656462763
C           -7.73215537678046       -1.88472631815076        0.06574567802061
C           -8.90425533377692       -2.69187906182797        0.15460884924502
C          -10.21008039814311       -2.12305091231319        0.14708692462748
C           -7.95068560278777       -0.47730713984964        0.00821088018406
C           -4.98685043036914        0.20454808707584        1.09864551278724
C           -3.60564677260391        0.20042587592532        1.10205645987485
C           -0.71280702889357        1.77685084597997        0.00376530872040
C           -1.38653535697325        3.02687950086030        0.02995575980949
C           -0.69775236448334        4.19959606569762        0.07659682700509
C            0.71117357767345        4.19435047173409        0.11595423480839
C            1.39461637172438        3.01753304913799        0.09941064847006
C            0.71678435479530        1.77123893118157        0.03138989853996
C            3.57565824480853        0.07110316350620        1.15594577716002
C            4.95676207531517        0.07746640735925        1.18540279334632
C            6.15956085813413        3.42859644106215        0.91638546218181
C            5.71818110758565        4.73913578361198        0.94491231181827
H            6.07688284976551        6.75396056641848        0.31454600623043
H            8.16288150601326        6.18619231308888       -0.88029827432257
H            8.95554167545958        3.84391603450024       -0.92713806518438
H           11.78947899245225        0.95549744152499        0.13047903839780
H           13.79771167370475       -0.50089698227012        0.06933935749944
H           13.53764787452100       -2.94589923914454       -0.06737938138510
H           12.12367279588600       -4.92580511846573       -0.19012563469136
H            9.88629211769423       -5.94028987390271       -0.30376242957524
H            7.47694192080006       -5.72364403510701       -0.37569494283477
H            5.44867040848094       -4.32210109565386       -0.38735288552602
H            5.62270978958004       -1.89183740226903       -0.20838922239048
H            5.55394015457180        1.41111440546779       -1.86799103148170
H            3.08422424609807        1.39251958493650       -1.91501283601228
H            2.45560382433299       -1.92399198331987       -0.07898517496847
H            1.20914975562060       -4.03011468143763       -0.14662663291871
H           -1.25913168625422       -4.01808388057104       -0.15808715313349
H           -2.48407181058381       -1.89572175987484       -0.11195093580106
H           -3.04369344185120        1.22537470694882       -2.06845251351208
H           -5.51472662073246        1.23144871101079       -2.08374733086923
H           -8.99212511867269        3.64397524862819       -1.53609326662554
H           -8.24486631052525        5.99067186586909       -1.76835953364900
H           -6.19490146245912        6.74701649796124       -0.61642789880711
H           -4.92442426753990        5.16510089025705        0.78808042433949
H           -5.66970737112369        2.84680017905065        1.02628314784347
H          -11.79907338296319        0.88104890257075       -0.07466238797601
H          -13.78563468685842       -0.59700678551128        0.09250206598427
H          -13.48987837080192       -3.03372670210176        0.28997183191301
H          -12.04739499796882       -4.99280867581338        0.41851859087601
H           -9.79613829033889       -5.98274813129123        0.41306048890136
H           -7.39158665889930       -5.74529426606826        0.28209468316749
H           -5.38505706325943       -4.33071860940855        0.05624607102658
H           -5.59307610423209       -1.90158065506574       -0.08829091941736
H           -5.54156330317280       -0.07804816071995        1.98192283407986
H           -3.07065405479992       -0.08386011393039        1.99611731407407
H           -2.46587040525295        3.02942337416438        0.01352599295514
H           -1.22415704554410        5.14269416224837        0.09243949785757
H            1.24311556820998        5.13326201189512        0.16475071708419
H            2.47312701109060        3.01686090958989        0.14050679759237
H            3.02177609456148       -0.29689135588885        2.00698826000139
H            5.49156132249508       -0.28906432871017        2.05003019099467
H            5.60840488869099        2.67147893773263        1.45277694117962
H            4.81707420307187        4.98502307013839        1.48768021986761
