118
 energy: -187.528646991897 gnorm: 0.000047083356 xtb: 6.7.1 (edcfbbe)
C            6.28763412270039        5.05612544676278       -2.74448631610885
C            5.64599461610422        4.52471823749250       -1.63819485109475
C            6.12316296826833        3.37434308171801       -1.03674551611003
C            7.25274110321333        2.73528938867708       -1.54485572885891
C            7.80940496002117        1.52569801573649       -0.95754081843393
N            9.09748205926394        1.28048449640263       -0.91623285666493
C            9.23098773623492        0.07454913606542       -0.30414722807366
C           10.43620442996827       -0.62351526186571       -0.00209394495978
C           11.69768931816133       -0.11900917455464       -0.29847718068490
C           12.83261450089725       -0.84101635658073        0.03062204367654
C           12.72125843512378       -2.06895962287151        0.65229961471984
C           11.46898066338979       -2.60871385400194        0.96124302485313
C           11.34060188511823       -3.87959559288594        1.59388312587303
C           10.12414096556846       -4.40159367604777        1.86795001194555
C            8.92520501319916       -3.70184103148696        1.54018011164461
C            7.67069953301996       -4.25934218599311        1.80390780474106
C            6.51752057494853       -3.58435225207791        1.46396881819232
C            6.58281730584177       -2.33173709669298        0.87716975118337
C            7.81082433699099       -1.72549927719697        0.61830748287749
C            9.01329621061383       -2.42506769493048        0.93099151835392
C           10.29643640199622       -1.88227960004930        0.63488737358392
C            7.97654374147950       -0.43923884103651        0.02686800843764
N            7.07233378417650        0.51207163894363       -0.38929293063710
C            5.66303145654078        0.47455271627832       -0.30757586731171
C            4.90809153850627        0.38553045743317       -1.47056314663864
C            3.52768255641526        0.37632196767842       -1.39444688734037
C            2.88631107503901        0.45754077018813       -0.16294274731700
C            1.40641378925685        0.45424487723879       -0.08162302531556
C            0.71340650066334       -0.76215076639702       -0.04516349147922
C            1.38983536237326       -2.01010283050135       -0.08683903166236
C            0.70397749139018       -3.18496365980605       -0.05244535670697
C           -0.70407719472824       -3.18540915076393        0.02711578702579
C           -1.39013739330160       -2.01097064160877        0.07119368121411
C           -0.71389734421812       -0.76261636245142        0.03956884452500
C           -1.40699003555125        0.45332880661228        0.08671650865956
C           -2.88703043742770        0.45640338682146        0.16647297275922
C           -3.65020492958296        0.54113807562259       -0.99480270496120
C           -5.03022379167485        0.55256719296200       -0.92957822811806
C           -5.66397238772206        0.47441545263768        0.30723094499882
N           -7.07343070825368        0.51081750811603        0.38665367650115
C           -7.81256365328732        1.52470500747844        0.95171371043561
C           -7.25791987566518        2.73638383515783        1.53667936326156
C           -7.91244388768071        3.29223358316596        2.63701246620235
C           -7.43206963443086        4.44331720551524        3.23031588847477
C           -6.29615883652132        5.06119621173634        2.73107654788866
C           -5.65491674146745        4.52935026627661        1.62476191684587
C           -6.13033427907432        3.37686000701837        1.02599034449135
N           -9.10023627384231        1.27770844039533        0.90949777409669
C           -9.23138723991874        0.07008381431030        0.30016805716366
C          -10.43532959490818       -0.63059884367089       -0.00088493117000
C          -11.69778871446556       -0.12713962102221        0.29312909762163
C          -12.83136353054911       -0.85211400074509       -0.03409151962279
C          -12.71768913340818       -2.08193648448408       -0.65161672154009
C          -11.46438808568537       -2.62050629631054       -0.95844776857662
C          -11.33364430179388       -3.89314675802644       -1.58703955339011
C          -10.11620771335216       -4.41380481405555       -1.85928797350479
C           -8.91858135684489       -3.71100808131919       -1.53327827363536
C           -7.66309283376232       -4.26717727580374       -1.79510459536615
C           -6.51117563794353       -3.58936610681980       -1.45656908995144
C           -6.57878205874445       -2.33537362247717       -0.87300745616042
C           -7.80783148423135       -1.73032121612146       -0.61630087144674
C           -9.00902097165393       -2.43264353588696       -0.92776349072832
C          -10.29319407623756       -1.89108899673440       -0.63390215252036
C           -7.97588760944956       -0.44275341335676       -0.02829292795195
C           -4.91060342680854        0.39085089312378        1.47164102878663
C           -3.53006606705397        0.38137901276532        1.39747197678472
C           -0.71369432495659        1.66969235080005        0.05205926046992
C           -1.39001893083175        2.91722649530589        0.10545302893360
C           -0.70419599610711        4.09187346735040        0.06588823963125
C            0.70281529149601        4.09243491746548       -0.03104486041758
C            1.38897160569031        2.91830116979218       -0.07954187307250
C            0.71301362971935        1.67019777097824       -0.03585371848567
C            3.65107815509094        0.54761351016695        0.99689395535812
C            5.03101775646623        0.55823577890389        0.92975850443930
C            7.90753311740152        3.29074936441048       -2.64525577064937
C            7.42561747710357        4.43988767950325       -3.24104600222752
H            5.90792584781757        5.95249335863273       -3.21206227670757
H            4.77081789383896        5.01314486181522       -1.23575965487053
H            5.62814012265267        2.98791309629123       -0.15887991033821
H           11.76662227723465        0.84273501985403       -0.78339523683269
H           13.80924364553173       -0.44075807702145       -0.20088853789606
H           13.60880611123174       -2.63090494363785        0.90693783248304
H           12.24393382910342       -4.41811300260641        1.84377788675874
H           10.03112881847628       -5.36910945525682        2.34111128921724
H            7.61596474728894       -5.23284523673181        2.26964099396524
H            5.55221624561127       -4.03032981311878        1.65584476955525
H            5.66848374719240       -1.82612487751584        0.61263590409136
H            5.40761885880563        0.32641839088667       -2.42635343076681
H            2.94025500360257        0.30626764282226       -2.29767560141525
H            2.46809762054515       -2.00833349741011       -0.14847523092369
H            1.23181527920733       -4.12699230198376       -0.08553224403283
H           -1.23167120680738       -4.12780522242753        0.05272526869985
H           -2.46837609413289       -2.00979221192458        0.13344936967305
H           -3.15611817363238        0.60168289849148       -1.95318146670211
H           -5.62431593790474        0.61929534592603       -1.82977879215743
H           -8.79840506530742        2.80258084657759        3.01134753985003
H           -7.94423643571790        4.86031511259361        4.08499338434026
H           -5.91770727261845        5.95914555918112        3.19663462009615
H           -4.78149689903913        5.01912795640298        1.22019132220600
H           -5.63568129352261        2.98979968134808        0.14815781875529
H          -11.76853234516232        0.83609155957793        0.77482908702481
H          -13.80876204887280       -0.45272282184966        0.19566759569440
H          -13.60417859628019       -2.64627990351444       -0.90463482117879
H          -12.23596395637977       -4.43407217357403       -1.83536891006198
H          -10.02136370565608       -5.38257960097781       -2.32950236493364
H           -7.60660019631119       -5.24183441442926       -2.25820015832556
H           -5.54503651638614       -4.03416500501133       -1.64696731956205
H           -5.66534710252586       -1.82775736830292       -0.60935915218253
H           -5.41141004537586        0.33602410608124        2.42701712645871
H           -2.94389209223726        0.31562207359690        2.30183711813935
H           -2.46725614998300        2.91275934503879        0.17987209340523
H           -1.22993368472677        5.03462523495701        0.10655782839466
H            1.22831547885067        5.03560767364787       -0.06474109066394
H            2.46620362627041        2.91472167657482       -0.15411008007356
H            3.15832566560722        0.61282726270603        1.95565305245371
H            5.62637412682370        0.62893446772738        1.82881736690552
H            8.79500774902859        2.80231364970195       -3.01757107868651
H            7.93816614752948        4.85660466846013       -4.09563076764615
