  103
       -163.54941686
 O          0.0909854197        4.3822016450        2.0647394598
 S          0.0157804642        3.5745694415        0.8748520440
 O         -0.0070391687        4.2365170804       -0.4034767907
 C         -1.4247495205        2.5112356524        1.0022613878
 C         -1.9645844407        2.2414417400        2.2450298626
 C         -3.0587731599        1.4027389313        2.3424877030
 C         -3.6211024408        0.8366548962        1.1980285846
 C         -4.7960572770       -0.0400599736        1.3013623995
 C         -4.8739592058       -0.9984503989        2.3128026798
 C         -5.9691866834       -1.8348742281        2.4327456427
 C         -7.0114505708       -1.7032151962        1.5294550092
 C         -6.9394926875       -0.7379730131        0.5137142877
 C         -5.8461442454        0.0859237819        0.3884085213
 C         -8.1829356032       -0.7724965283       -0.3400863032
 C         -8.9228132096        0.5435584968       -0.3773667506
 C         -9.4356377913        1.2650142493        0.6778519802
 C        -10.0873044226        2.4605809453        0.4053046805
 C        -10.2186575094        2.9171104169       -0.8975561447
 C         -9.7038910869        2.1931345236       -1.9611189788
 C         -9.0528127192        0.9994725694       -1.6970354451
 C         -8.4186839788        0.0353920941       -2.5825702735
 C         -8.2737024502        0.0164235617       -3.9599133115
 C         -7.6085671059       -1.0506971144       -4.5422780174
 C         -7.0965375966       -2.0800884422       -3.7669572584
 C         -7.2390780301       -2.0686508783       -2.3857007191
 C         -7.9008870846       -1.0098234799       -1.8042617803
 C         -8.9729610193       -1.8827370277        0.3093336940
 C        -10.2111732024       -2.3711141507       -0.0450614526
 C        -10.7531844250       -3.4050545208        0.7067167270
 C        -10.0651736132       -3.9341027714        1.7886157525
 C         -8.8194799077       -3.4454485053        2.1478856257
 C         -8.2723147730       -2.4138483661        1.4024696191
 C         -3.0604857322        1.1258897200       -0.0467490562
 C         -1.9600966854        1.9566402475       -0.1443540992
 C          1.3830790332        2.4103978640        0.8898679831
 C          2.0781439595        2.1505042361       -0.2748888694
 C          3.1311093719        1.2548460522       -0.2526072450
 C          3.4842452476        0.6073170461        0.9314383409
 C          4.6111056269       -0.3357434077        0.9564843324
 C          4.5122179919       -1.5371249592        1.6595163796
 C          5.5581181800       -2.4419950665        1.6942460100
 C          6.7296657902       -2.1343237220        1.0215749937
 C          6.8361638339       -0.9238593803        0.3200725820
 C          5.7926465539       -0.0300960982        0.2763111573
 C          8.1967803376       -0.7989016545       -0.3195300408
 C          8.9611126761        0.4220518458        0.1348120440
 C          9.3159180074        0.7788386496        1.4169166734
 C         10.0288125770        1.9560773449        1.6009827031
 C         10.3751616496        2.7530554035        0.5202750652
 C         10.0192933166        2.3965279018       -0.7706789585
 C          9.3079693616        1.2236050694       -0.9620852020
 C          8.8011442694        0.5942825259       -2.1716109474
 C          8.8744662000        0.9768666384       -3.5007453684
 C          8.2877461136        0.1646174373       -4.4580881585
 C          7.6392691008       -1.0071174439       -4.0981370737
 C          7.5621343080       -1.3974570415       -2.7676864091
 C          8.1452167501       -0.5925561635       -1.8140829927
 C          8.8511098552       -2.0957514536        0.0906230461
 C         10.1174172145       -2.5463477221       -0.2105309438
 C         10.5136623387       -3.7818053643        0.2839353253
 C          9.6558208819       -4.5442049637        1.0627946752
 C          8.3815559044       -4.0939355510        1.3679245816
 C          7.9789888412       -2.8621682177        0.8779573707
 C          2.7606470012        0.8779647825        2.0936318779
 C          1.7143639191        1.7803810022        2.0744680881
 H         -1.5344790780        2.7143648452        3.1140309569
 H         -3.5012189168        1.2042424770        3.3072437047
 H         -4.0480522608       -1.1019326242        3.0013757456
 H         -6.0082234568       -2.5761597313        3.2169638347
 H         -5.8093584522        0.8375674775       -0.3865043583
 H         -9.3335084688        0.9083463353        1.6925940222
 H        -10.4963987643        3.0420690058        1.2182418368
 H        -10.7291048001        3.8505934744       -1.0848250219
 H         -9.8090663591        2.5526350411       -2.9739597890
 H         -8.6703344420        0.8158232588       -4.5679006778
 H         -7.4867057572       -1.0820630227       -5.6152274719
 H         -6.5809637000       -2.9011727437       -4.2429675616
 H         -6.8412295769       -2.8707390515       -1.7808242873
 H        -10.7468747685       -1.9586007113       -0.8875892466
 H        -11.7230394682       -3.8021770943        0.4458057178
 H        -10.5077951188       -4.7380198942        2.3585327033
 H         -8.2874687889       -3.8600246165        2.9912766808
 H         -3.4836962756        0.6837664961       -0.9364632127
 H         -1.5177703507        2.1996914178       -1.0976761846
 H          1.7911239270        2.6687914069       -1.1764788828
 H          3.6777718258        1.0420586601       -1.1592994520
 H          3.5880788527       -1.7727881526        2.1669476110
 H          5.4600092234       -3.3707673965        2.2362549672
 H          5.8913459846        0.9056054187       -0.2542164801
 H          9.0460679314        0.1569021819        2.2581864620
 H         10.3171040331        2.2545039786        2.5980863308
 H         10.9301521381        3.6644932046        0.6882057761
 H         10.2914837435        3.0206748267       -1.6087892653
 H          9.3779558219        1.8885424524       -3.7860469593
 H          8.3357669867        0.4473616225       -5.4996199015
 H          7.1891795673       -1.6241411454       -4.8618572393
 H          7.0577992428       -2.3107404992       -2.4865126558
 H         10.7852145259       -1.9516466703       -0.8166541875
 H         11.5025405269       -4.1534715522        0.0594756633
 H          9.9869874222       -5.5023160378        1.4360987500
 H          7.7170326021       -4.6910960117        1.9746094187
 H          3.0405965603        0.3971459830        3.0190517758
 H          1.1629088432        2.0194036814        2.9700678739
