  34
        -61.97159746
 Br         6.6142048681        0.4311299283       -0.0024218131
 C          4.7223776368        0.6774972674        0.0023460159
 C          4.2257576976        1.9950193173        0.0007753441
 C          2.8790081455        2.2123270912        0.0012094649
 C          1.9854178478        1.1186042382        0.0027308561
 N          0.6637937868        1.3344855643        0.0013067462
 C         -0.1363369946        0.2853739285        0.0016295560
 C         -1.5665376194        0.4956385046       -0.0005746532
 C         -2.0657002608        1.8016806954       -0.0049053802
 C         -3.4185322715        2.0443440581       -0.0060592362
 C         -4.2811898301        0.9551233002       -0.0013496628
 Br        -6.1674095536        1.2633913748        0.0002724778
 C         -3.8189563739       -0.3419391611        0.0024985368
 C         -2.4450078000       -0.6063942459        0.0015384293
 C         -1.9167730634       -1.9637425713        0.0011997024
 C         -2.7419851482       -3.0941017451       -0.0029016210
 C         -2.2149713008       -4.3676884649       -0.0054397184
 C         -0.8383409877       -4.5614391374       -0.0031750144
 C         -0.0020630744       -3.4692359593        0.0013517822
 C         -0.5228595936       -2.1722061755        0.0030987561
 C          0.3837050084       -1.0455290874        0.0043405440
 N          1.6836640813       -1.2691576518        0.0061223948
 C          2.5047484196       -0.2104691469        0.0047743170
 C          3.9010998617       -0.4123652753        0.0045291072
 H          4.9213872067        2.8202414663       -0.0019002797
 H          2.4683568499        3.2097057248       -0.0005265670
 H         -1.3567070165        2.6142506886       -0.0076695591
 H         -3.8076119387        3.0503334864       -0.0098274304
 H         -4.5366242964       -1.1453356063        0.0069152542
 H         -3.8145077890       -2.9854384504       -0.0050520976
 H         -2.8792551509       -5.2191313858       -0.0102306797
 H         -0.4314231096       -5.5611090520       -0.0047968491
 H          1.0706986699       -3.5812015754        0.0027290680
 H          4.2807540122       -1.4218346621        0.0067410971
