34
 energy: -61.948600311528 gnorm: 0.000037718633 xtb: 6.7.1 (edcfbbe)
Br           6.64551872842202        0.41682474384700        0.00480684003681
C            4.75779567369926        0.70534957100891        0.00283405201154
C            4.26876901273403        2.00063374661508        0.00105054908273
C            2.90016835389328        2.20863318103851       -0.00024567424420
C            2.00421080379772        1.14164533407980        0.00016743617995
N            0.68849238481217        1.28901816678787       -0.00088505236751
C           -0.16321902527254        0.27669336215806       -0.00064606365368
C           -1.57447387855953        0.47692536059911       -0.00140586825619
C           -2.07420506849853        1.79240964701834       -0.00212310458885
C           -3.42122195634551        2.03775803664169       -0.00217642998375
C           -4.29567961226174        0.95014411732135       -0.00131888425277
Br          -6.18209177008015        1.27866208180099       -0.00061125877645
C           -3.84264198459551       -0.34667121579719       -0.00091958348358
C           -2.46782824354613       -0.62181326345470       -0.00120347690665
C           -1.94279596090965       -1.96738679217776       -0.00119473671831
C           -2.76023827008869       -3.10804611230956       -0.00266792968076
C           -2.22475596356653       -4.37414108647811       -0.00259739307027
C           -0.84117674353313       -4.55662791571123       -0.00085959105146
C           -0.01217845566456       -3.46514082990140        0.00043368773138
C           -0.54181797868691       -2.16237957921140        0.00008075204724
C            0.35925797001597       -1.05424660669051        0.00065306919322
N            1.66904894727729       -1.21804319035439        0.00197857748323
C            2.53574678396069       -0.21403867323888        0.00187695293595
C            3.91409345329508       -0.39490490176651        0.00325952808397
H            4.94551882443677        2.84001024361902        0.00066991355041
H            2.49940664776527        3.20974598032139       -0.00157297020004
H           -1.36479347114366        2.60544415361791       -0.00254670708817
H           -3.80389162561287        3.04624409253140       -0.00273247240035
H           -4.56160369087873       -1.14869235933181       -0.00020202461058
H           -3.83266472241205       -3.00316349073996       -0.00411632990791
H           -2.87921476332309       -5.23275191742087       -0.00391276451722
H           -0.42650294050428       -5.55323879375822       -0.00067964788787
H            1.06167670058828       -3.57414618353257        0.00159836541889
H            4.30529341442089       -1.39981194245261        0.00459336587500
