34
 energy: -62.000035669536 gnorm: 0.000076544354 xtb: 6.7.1 (edcfbbe)
Br           6.61859248175617        0.43083995889565        0.00348475055574
C            4.72531913207195        0.67889367545189        0.00258897121425
C            4.22883372535371        1.99644127436685        0.00075998217704
C            2.88164324285905        2.21337054156090       -0.00006430389401
C            1.98769092780479        1.11951181394868        0.00074302321376
N            0.66471187886753        1.33492214888075       -0.00060967326565
C           -0.13675638502499        0.28587798619924       -0.00023746529056
C           -1.56721681739258        0.49643235588713       -0.00141763677182
C           -2.06805027125688        1.80252195982961       -0.00312094347355
C           -3.42130780390919        2.04482436164811       -0.00323153022104
C           -4.28320222240492        0.95464610762734       -0.00095662977300
Br          -6.17217282981511        1.26299370323546        0.00027321485968
C           -3.82012369292793       -0.34249585048002        0.00034792668546
C           -2.44566851981589       -0.60634449924551       -0.00047612698019
C           -1.91727836330358       -1.96419302068482       -0.00061592071752
C           -2.74310795713964       -3.09437119278641       -0.00309169580271
C           -2.21684990726366       -4.36879329270583       -0.00361602994122
C           -0.84017857296335       -4.56372058688807       -0.00138917392988
C           -0.00320127497322       -3.47149749511007        0.00085445571564
C           -0.52271075834369       -2.17317792921485        0.00095386110089
C            0.38370672672676       -1.04630852540057        0.00169796158562
N            1.68486124562675       -1.26899815469544        0.00334751741908
C            2.50705757888105       -0.20952178567444        0.00278524591816
C            3.90384076229946       -0.41147174580894        0.00381535243551
H            4.92327777813437        2.82240283476675       -0.00015666001183
H            2.47213560305331        3.21121893615983       -0.00149525363604
H           -1.36076637544169        2.61654204273354       -0.00429990177777
H           -3.80864597261146        3.05150219079954       -0.00478066917320
H           -4.53647418516523       -1.14674560110140        0.00220528856848
H           -3.81504358692453       -2.98515159715124       -0.00506200797602
H           -2.88157476159263       -5.21973699328174       -0.00583360512065
H           -0.43231976815378       -5.56302607980305       -0.00170299608306
H            1.06939567604539       -3.58547338896598        0.00229408051136
H            4.28367451317719       -1.42105203068465        0.00533859884482
