55
 energy: -89.124344130476 gnorm: 0.000059155033 xtb: 6.7.1 (edcfbbe)
N           -2.22175827067312       -5.93521683679062        0.00008548818561
C           -2.44590869813605       -4.80910477781086        0.00016680985054
C           -2.72122539660088       -3.42468687046881        0.00011028357994
C           -4.04962387885012       -2.98599762712681        0.00006155085817
C           -4.34041005576304       -1.63483784391901        0.00003199525025
C           -3.29103893428621       -0.72628693432781        0.00005711863826
C           -1.95785378799428       -1.17088214753446        0.00005384271288
C           -1.65900615833165       -2.51223969312518        0.00009092365402
C           -0.99540977415718        0.00000484751944        0.00001749392123
C           -1.95783313181587        1.17090858980136        0.00000949630025
C           -1.65896165428488        2.51226094402121       -0.00003167780667
C           -2.72116362374100        3.42472562633523       -0.00008065606161
C           -2.44581558563526        4.80914777862068       -0.00023029404514
N           -2.22163551676554        5.93527381929718       -0.00050837901648
C           -4.04956959728100        2.98606392825921       -0.00005170104991
C           -4.34038063435273        1.63490901216489        0.00003570257064
C           -3.29102601499844        0.72633921768221        0.00004606192761
C           -0.15585409626506        0.00000994534871        1.25806049526087
C           -0.79986069546011        0.00001084568648        2.48687146493116
C           -0.08755652828900       -0.00001674685089        3.67159758083516
C            1.29683012120948       -0.00003609327628        3.62623031492076
C            1.95378944497318       -0.00003010933543        2.41321936407636
C            1.24108685940673       -0.00001217835203        1.20977321801380
N            1.91326077171380       -0.00002503368805        0.00000139090344
C            3.34076013682373       -0.00002745429652       -0.00000401787303
C            4.03356269376199       -1.20409439155145       -0.00003404221503
C            5.41776552276245       -1.20019234677460       -0.00003290791708
C            6.10977282739859       -0.00003048344382       -0.00000249527123
C            5.41776822206645        1.20013293194935        0.00002110177026
C            4.03356545742210        1.20403791845652        0.00002057139348
C            1.24107614687202       -0.00002384284536       -1.20976447977889
C            1.95377172468464       -0.00002178766321       -2.41321551449683
C            1.29680461143715       -0.00000013026395       -3.62622199803851
C           -0.08758222975012        0.00001179118297       -3.67157670563916
C           -0.79987915404165       -0.00000227634578       -2.48684542466001
C           -0.15586686513664       -0.00001674657151       -1.25803652241767
H           -4.84501610515976       -3.71681251023051        0.00004538274827
H           -5.36568342650493       -1.29851251707789       -0.00001853147387
H           -0.63797450687989       -2.86432077614766        0.00010823448196
H           -0.63792346207474        2.86432260620343       -0.00005540934896
H           -4.84494830187824        3.71689348931935       -0.00012236177017
H           -5.36566020201611        1.29860262246523        0.00009106585847
H           -1.88049426996322        0.00002844823794        2.51086003034024
H           -0.60681737003186       -0.00003133987448        4.61764037037685
H            1.87107721914390       -0.00006106049580        4.54085582375165
H            3.03249006425591       -0.00004534949660        2.39032260129440
H            3.48460035615610       -2.13449983433993       -0.00005857736116
H            5.95573123190706       -2.13647213224385       -0.00005724708319
H            7.18952572374061       -0.00003168713477        0.00000361880209
H            5.95573595063100        2.13641154083781        0.00004482139056
H            3.48460526840285        2.13444461453932        0.00003958688691
H            3.03247299922605       -0.00003054207829       -2.39032939820336
H            1.87104445349239        0.00001198652901       -4.54085265066238
H           -0.60684861135574        0.00004001968126       -4.61761605087138
H           -1.88051226902251        0.00000657734694       -2.51082776241916
