  55
        -89.00024110
 N         -2.5012389232       -5.7932110111       -0.0403072442
 C         -2.6356476378       -4.6455701739       -0.0095315425
 C         -2.7910578603       -3.2639272087        0.0040631307
 C         -4.0900993025       -2.6868859923        0.0237288203
 C         -4.2652275081       -1.3357304546        0.0342000102
 C         -3.1286390360       -0.4865835025        0.0246043705
 C         -1.8221707301       -1.0815681945        0.0094297218
 C         -1.6424947979       -2.4245254450       -0.0012919428
 C         -0.7531627806        0.0018202387        0.0032982448
 C         -1.6123449880        1.2603059607        0.0024344118
 C         -1.1961324257        2.5493081164       -0.0160691251
 C         -2.1766280313        3.5799022936       -0.0138541408
 C         -1.7767027240        4.9113698582       -0.0395789427
 N         -1.4346712229        6.0163959440       -0.0632664928
 C         -3.5574950421        3.2435439375        0.0101097794
 C         -3.9702576443        1.9455198287        0.0280867650
 C         -3.0034280637        0.9072282107        0.0214601187
 C          0.0737245971       -0.0592571692        1.2540816521
 C         -0.5652960623       -0.0499075223        2.4857696839
 C          0.1535563302       -0.0954320992        3.6647021396
 C          1.5409421098       -0.1518198791        3.6198705390
 C          2.1964647032       -0.1616737814        2.4091619523
 C          1.4753448434       -0.1141174981        1.2078712280
 N          2.1384469787       -0.1275141909       -0.0008759260
 C          3.5650061668       -0.1669676200       -0.0013604521
 C          4.2219212619       -1.3894950393       -0.0541882978
 C          5.6053983086       -1.4211998366       -0.0500064678
 C          6.3282493422       -0.2407343177        0.0071833023
 C          5.6690813548        0.9764499373        0.0590831625
 C          4.2857409350        1.0185651473        0.0546416054
 C          1.4717515545       -0.1180504089       -1.2075328024
 C          2.1892188121       -0.1584442328       -2.4113200235
 C          1.5293052624       -0.1559687120       -3.6197799377
 C          0.1414112813       -0.1110402186       -3.6598877031
 C         -0.5734890067       -0.0645669653       -2.4785176015
 C          0.0699125228       -0.0669221521       -1.2490977376
 H         -4.9407759600       -3.3528320475        0.0299299373
 H         -5.2546795152       -0.9049610280        0.0490800200
 H         -0.6594979579       -2.8732728124       -0.0150945011
 H         -0.1490353094        2.8160228962       -0.0348067368
 H         -4.2759913610        4.0502730334        0.0108488928
 H         -5.0205953559        1.6979947285        0.0445959725
 H         -1.6435920702       -0.0057181159        2.5093598572
 H         -0.3608043652       -0.0876298231        4.6126088070
 H          2.1120602335       -0.1895722278        4.5344638540
 H          3.2741037531       -0.2085765057        2.3821201910
 H          3.6459413300       -2.3021328126       -0.0977637217
 H          6.1170565121       -2.3704995906       -0.0904186264
 H          7.4069283201       -0.2695969983        0.0115361868
 H          6.2302101205        1.8971757574        0.1041860482
 H          3.7595728323        1.9607124145        0.0973917263
 H          3.2674978178       -0.1916862592       -2.3878431369
 H          2.0973642518       -0.1886164956       -4.5364783644
 H         -0.3763232669       -0.1098217129       -4.6059918719
 H         -1.6520620318       -0.0249674432       -2.4980463777
