55
 energy: -89.124352175004 gnorm: 0.000066480188 xtb: 6.7.1 (edcfbbe)
N           -1.72153595687851       -6.00102792945712        0.00122689372374
C           -1.99584423145346       -4.88605660953375        0.00075193009402
C           -2.33259903856809       -3.51526932593319        0.00014310234501
C           -3.67945356501300       -3.13699237678773       -0.00113761695428
C           -4.03099322910566       -1.80037915609239       -0.00142113717648
C           -3.02371350917982       -0.84533843942142       -0.00043370556570
C           -1.67181090132447       -1.22921539025316        0.00054441818201
C           -1.31271812327614       -2.55574573734585        0.00098346141464
C           -0.76327271951416       -0.01582970287697        0.00093617422574
C           -1.77775771086378        1.11020501006969        0.00069414000469
C           -1.53987595453763        2.46372865258423        0.00100445855225
C           -2.64233458217397        3.32710383414427        0.00049542178100
C           -2.43062226042174        4.72269114384088        0.00054624759793
N           -2.25790092972027        5.85784976992106        0.00054382131878
C           -3.94952348666137        2.82874227512590       -0.00025436040632
C           -4.17898826986276        1.46586806050008       -0.00065631306099
C           -3.08950565000723        0.60579139884576       -0.00023808051894
C            0.07541503173466        0.02120834201377        1.25906208864894
C           -0.56848322876687        0.00486255863980        2.48781596956970
C            0.14316645677584        0.03450350046238        3.67257527727485
C            1.52677838951756        0.08085363189099        3.62734612880792
C            2.18366407345865        0.09693747886824        2.41440334713122
C            1.47158253513995        0.06828467218194        1.21094068989881
N            2.14364969140288        0.08660446045761        0.00125704015952
C            3.57090185514838        0.11244866512226        0.00111109438756
C            4.28296086282216       -1.08019632751883       -0.01363032247734
C            5.66687413628149       -1.05433294694728       -0.01463031527129
C            6.33950053903776        0.15668520862664       -0.00054801723476
C            5.62834250327244        1.34551483475977        0.01455976054595
C            4.24421905558148        1.32743897465916        0.01523048525451
C            1.47176532403459        0.07027386624157       -1.20856607250796
C            2.18395670493100        0.10398049438254       -2.41184283453686
C            1.52733987306318        0.08904172842579       -3.62494011344034
C            0.14386000611190        0.03928486021936       -3.67052615186780
C           -0.56796442120600        0.00654908922641       -2.48595415684681
C            0.07566610140692        0.02192138666843       -1.25704439802007
H           -4.44066604065101       -3.90328340728859       -0.00191219254582
H           -5.07040216912606       -1.51063624254133       -0.00247354947653
H           -0.27680156239103       -2.86117179704857        0.00205023730507
H           -0.53578975706935        2.86156555797467        0.00156306799100
H           -4.77662926398939        3.52334908567891       -0.00049303297255
H           -5.18799306562244        1.08356265379562       -0.00125100854325
H           -1.64848237856389       -0.03216544597591        2.51179539682041
H           -0.37598873148178        0.02153571448732        4.61858327632820
H            2.10046529013738        0.10418749480343        4.54202550623069
H            3.26180436783003        0.13188267718973        2.39156982069961
H            3.74857511664450       -2.01899276585412       -0.02448669510671
H            6.21968904253281       -1.98184304727890       -0.02639805452667
H            7.41910693437462        0.17389576461079       -0.00134197709324
H            6.15137570614887        2.29015775275426        0.02563113334342
H            3.68058010786502        2.24893420529698        0.02673657282785
H            3.26197718797368        0.14216397577247       -2.38875637757851
H            2.10113993846131        0.11603088497861       -4.53944653951595
H           -0.37508329012233        0.02676047463436       -4.61665657139228
H           -1.64790019706137       -0.03201331777186       -2.51022567801443
