  55
        -89.08496799
 N         -1.6760754232       -5.9910127949        0.0039347231
 C         -1.9609566131       -4.8796982346        0.0069993130
 C         -2.3079327950       -3.5108197458        0.0067299226
 C         -3.6566170280       -3.1419682276        0.0120736698
 C         -4.0178374691       -1.8080780464        0.0110415869
 C         -3.0177468259       -0.8460721757        0.0053499550
 C         -1.6638158053       -1.2212768841        0.0018416097
 C         -1.2954340303       -2.5447525733        0.0020501042
 C         -0.7632831809       -0.0035734448       -0.0016430640
 C         -1.7829457934        1.1157150446       -0.0036423137
 C         -1.5514994941        2.4699107314       -0.0083713217
 C         -2.6572881872        3.3276845999       -0.0082149546
 C         -2.4522249172        4.7248876726       -0.0128265173
 N         -2.2854656432        5.8599514345       -0.0162401158
 C         -3.9614086204        2.8233331353       -0.0031719406
 C         -4.1847993340        1.4595538844        0.0017353418
 C         -3.0917608994        0.6045585045        0.0015036378
 C          0.0735902052        0.0389413975        1.2565091457
 C         -0.5711926673        0.0301190818        2.4843614199
 C          0.1405137068        0.0585039209        3.6687955437
 C          1.5240920591        0.0933234332        3.6240886679
 C          2.1819273030        0.1021854593        2.4118362052
 C          1.4694566171        0.0775648557        1.2089344099
 N          2.1408561983        0.0887432977       -0.0006097837
 C          3.5662685964        0.1017491713        0.0002778470
 C          4.2670654851       -1.0958236152       -0.0566784779
 C          5.6506219453       -1.0826970478       -0.0550322379
 C          6.3336930708        0.1207036712        0.0044203929
 C          5.6336989386        1.3145907426        0.0614059449
 C          4.2500026678        1.3090483388        0.0590030901
 C          1.4702571230        0.0754960650       -1.2104950416
 C          2.1834049083        0.1093370260       -2.4127430999
 C          1.5264890079        0.0958080491       -3.6255017060
 C          0.1431547976        0.0496390357       -3.6713209985
 C         -0.5693660394        0.0200937822       -2.4874350686
 C          0.0745013165        0.0334276971       -1.2590878711
 H         -4.4124182982       -3.9135136789        0.0162224742
 H         -5.0595406131       -1.5250113538        0.0142956440
 H         -0.2571205682       -2.8414847245        0.0002912278
 H         -0.5488401185        2.8708468723       -0.0125914219
 H         -4.7919264944        3.5138316623       -0.0031108003
 H         -5.1921990178        1.0716814548        0.0058481931
 H         -1.6514813714       -0.0005200952        2.5069822802
 H         -0.3786030520        0.0512263904        4.6142432108
 H          2.0972836463        0.1134180229        4.5386183771
 H          3.2605621715        0.1277374174        2.3890631045
 H          3.7229009112       -2.0277752045       -0.1024715168
 H          6.1949610538       -2.0139606521       -0.0991376106
 H          7.4130043557        0.1280923357        0.0060712388
 H          6.1651883635        2.2531470582        0.1067946186
 H          3.6928948095        2.2334765530        0.1022738294
 H          3.2617228453        0.1473942042       -2.3887896533
 H          2.1000562088        0.1216070283       -4.5396341300
 H         -0.3751465469        0.0376110120       -4.6172180509
 H         -1.6495205856       -0.0149246393       -2.5107222797
