101
 energy: -159.803864783657 gnorm: 0.000065473135 xtb: 6.7.1 (edcfbbe)
N          -10.86403179104122       -7.34956125844340       -0.50221296001608
C           -9.94562835255651       -6.65916005687402       -0.44215327494038
C           -8.82241669949269       -5.81577984003037       -0.36872182217688
C           -7.71020498431869       -6.18765223059977        0.39604887423948
C           -6.61337336765062       -5.35872970435977        0.46137332269575
C           -6.58847431115584       -4.13713333597427       -0.22151262954806
C           -5.41914677095956       -3.26021413996654       -0.14058449321918
C           -4.12627148600733       -3.79727901229274       -0.11444102393903
C           -3.03887069068620       -2.96296228533990       -0.04603519682628
C           -3.20490595361460       -1.57331504193429        0.00906186122315
C           -4.49823723557259       -0.99898036717672       -0.00821139970408
C           -5.57941371649195       -1.87615112374185       -0.08685865035334
C           -4.65871162916209        0.45139387474553        0.07471229805710
C           -5.91140367534127        1.04047640297303        0.08132450893452
C           -6.11772710088791        2.42514512293664        0.16968927040716
C           -7.44987439683670        2.98927136335697        0.14852958318884
C           -8.56370680657243        2.26923260755693        0.62258238491108
C           -9.82632773725881        2.80463293655976        0.60128876674632
C          -10.03942049333554        4.09616358739858        0.09153528690176
C          -11.32623174941351        4.64702287774958        0.06187506124049
N          -12.38545737456401        5.10256674693516        0.03630726173579
C           -8.93982423351825        4.82773396396302       -0.38741451238189
C           -7.68065657237984        4.28547063286634       -0.35210986323269
C           -4.97445554651546        3.24559831237960        0.28666969088576
C           -3.72320816400291        2.70736394531767        0.28556291269745
C           -3.50881921773127        1.31177850775788        0.15362800866929
C           -2.24555688201738        0.71354399003726        0.10753573362111
C           -2.08577244571103       -0.70246378520696        0.07370064001799
N           -0.79393789318783       -1.03125836264251        0.10190814662653
C           -0.10304811814572        0.10860455141564        0.12228623988555
C            1.31549627818212        0.11656300254170        0.08994994091280
C            2.11968395173705        1.23563047578010       -0.22072100070761
C            3.48464423540428        1.13813195091773       -0.23796884992346
C            4.15005224045807       -0.07411695771816        0.03522635286434
C            5.59144033282039       -0.16318885354685        0.01060016974620
C            6.40079412689783        0.95223382035533        0.29796860662556
C            7.76990576097248        0.87198223726965        0.27392664635567
C            8.41182852981638       -0.33433665349034       -0.04608773039937
N            9.79458184358657       -0.41698302736594       -0.07617157969717
C           10.44229712985969       -1.60968145620046        0.27185328701863
C            9.96888646615536       -2.38884707860336        1.32914508442251
C           10.61591025512673       -3.56109090221408        1.66867206093735
C           11.73990883667046       -3.97073195658952        0.96780929942726
C           12.21552894326319       -3.19769165083362       -0.08041892543147
C           11.57440106952663       -2.02551046280809       -0.43104855654929
C           10.56247620525677        0.69155179429557       -0.45730997534888
C           10.13951315889557        1.51989223433891       -1.49841363383652
C           10.90304621954230        2.60935463936245       -1.87025730911793
C           12.09455152579373        2.88641379376130       -1.21763740759263
C           12.52060685173838        2.06322683574742       -0.18645995401640
C           11.76347658733043        0.97299555744354        0.19598976972506
C            7.61650826911427       -1.45397812953421       -0.33531378658931
C            6.24784704262518       -1.36803659654736       -0.30423008455996
C            3.34387985702044       -1.19818045983288        0.31700070371847
C            1.98206274397810       -1.10786030616235        0.34576382135670
N           -0.96298998326192        1.21319977030889        0.13028622490279
C           -0.57708460422066        2.56721507806019        0.22555340689659
C           -0.03142663754904        3.04804704893290        1.41185787140754
C            0.35820497548998        4.37271533304355        1.49859320066304
C            0.20466292336465        5.21777393246096        0.41113447138550
C           -0.34129145599128        4.73809170996849       -0.76955715119373
C           -0.73238268966692        3.41519936578959       -0.86846816799484
C           -7.70729026139231       -3.77632430804584       -0.98126424825340
C           -8.80830238722938       -4.59873304353512       -1.06045594520521
H           -7.72524543626962       -7.12476714960597        0.93375943715154
H           -5.76895020407483       -5.64456519717348        1.07033951266361
H           -3.98608565749925       -4.86567521968095       -0.17908569611719
H           -2.03198524514828       -3.35118185254197       -0.03885714214964
H           -6.58731074879035       -1.49447045924818       -0.08020902488864
H           -6.78565452254491        0.41948820963096       -0.01949036483808
H           -8.42249161825922        1.28701008554551        1.04818499948533
H          -10.66802253966041        2.24279355344539        0.98180733502483
H           -9.10120735042712        5.81844499224479       -0.78888900058674
H           -6.85518257249707        4.85548656666377       -0.75109391478786
H           -5.09180871736094        4.31073077043545        0.41679836353077
H           -2.87099655234958        3.35622625096977        0.40496869740936
H            1.66070208278748        2.17412307271867       -0.48450814518096
H            4.06113221083672        2.00797391662419       -0.51464331639044
H            5.93865222938775        1.88278824490124        0.58860285928891
H            8.36592937183794        1.73551482798196        0.52971477910445
H            9.10394854193066       -2.06122334635431        1.88668274432576
H           10.24549816685093       -4.15418222941827        2.49147200364555
H           12.24315782860361       -4.88661204235005        1.23788303239932
H           13.08717210110510       -3.51374265647190       -0.63389392835080
H           11.93769201895924       -1.43017289701591       -1.25555679256984
H            9.22026803217507        1.29406796305920       -2.01831950274863
H           10.57007280037427        3.24102200016756       -2.68034817014197
H           12.68876414961338        3.73806646101444       -1.51204601299715
H           13.44538175163985        2.27609822883387        0.32872006254693
H           12.08959699212448        0.33930799926238        1.00738791586094
H            8.09264811106586       -2.38276920863216       -0.61281907117320
H            5.66542026596088       -2.23505712128937       -0.57397834118743
H            3.81154702811103       -2.14173254525513        0.55357003566718
H            1.37389746011869       -1.96794093046198        0.57750522514244
H            0.08551139855903        2.37907052310347        2.25185140363004
H            0.77967263119050        4.74537808738604        2.41998013145964
H            0.50914177823961        6.25083344461700        0.48310469799814
H           -0.46138765747624        5.39436749879905       -1.61845959875496
H           -1.15952998288405        3.02967590394009       -1.78297939248368
H           -7.69871257531322       -2.85037558561018       -1.53690845649358
H           -9.66474112586786       -4.31630682124088       -1.65588396715961
