101
 energy: -159.803853852188 gnorm: 0.000127145034 xtb: 6.7.1 (edcfbbe)
N          -10.93224216562870       -7.21923156346977       -0.54819835961880
C          -10.00940720544588       -6.53624437727032       -0.47397282912642
C           -8.88008868269899       -5.70261854579992       -0.38293714880827
C           -7.79470547537451       -6.07225612602850        0.42043559280153
C           -6.69045883649280       -5.25456339801057        0.50145450199923
C           -6.63258135112184       -4.04648309803885       -0.20282593863879
C           -5.45393865431599       -3.18297787796767       -0.10934311558262
C           -4.16923051707488       -3.73677352601258       -0.05223889026482
C           -3.07155150959938       -2.91572465348571        0.01373012609133
C           -3.21986269438739       -1.52336596409804        0.04024609320129
C           -4.50543982733739       -0.93277691732727        0.00508641300493
C           -5.59708242970060       -1.79661463691514       -0.07865792539323
C           -4.64742053760610        0.52020031710495        0.07227168028423
C           -5.89303384230001        1.12344839094033        0.10661748848571
C           -6.08102040350167        2.51127590548022        0.17847995811206
C           -7.40770666524904        3.08947419275380        0.19248582939435
C           -8.50953276396659        2.39277318249841        0.72499058323169
C           -9.76671893201093        2.94133004421598        0.73823402035824
C           -9.98589647600093        4.22257760744350        0.20591013175867
C          -11.26821426344988        4.78508643354507        0.21063624189443
N          -12.32397502390636        5.24916859183228        0.21423206103257
C           -8.89806249534739        4.93077767326761       -0.33100235417667
C           -7.64373792846217        4.37587091463164       -0.32952677901316
C           -4.92648646629216        3.32103009517856        0.24422540209936
C           -3.68156305604552        2.76831004773699        0.22033235455183
C           -3.48654728554866        1.36807567102089        0.11325047308375
C           -2.23112097411944        0.75268576899540        0.06880147152735
C           -2.08954706450276       -0.66535037367054        0.08311965056298
N           -0.80210205683482       -1.00961739927645        0.12041261911070
C           -0.09647173295589        0.12143998435116        0.09819649759724
C            1.32162845395667        0.10937174304911        0.06417388149077
C            2.14130075019029        1.20277721908666       -0.29478832393506
C            3.50461153344839        1.08607306110467       -0.30675769841919
C            4.15450944593518       -0.12149675060837        0.02160822211588
C            5.59410860256441       -0.23068683221875        0.00645198350840
C            6.41895260673887        0.88901410901089        0.22788477913137
C            7.78680389364088        0.78925297662323        0.21061980186650
C            8.41257047276491       -0.44345597442477       -0.03092099333432
N            9.79446797448441       -0.54684327966061       -0.05328926807964
C           10.42372282088837       -1.71831345462562        0.38747973910197
C            9.93669491635647       -2.40403212770367        1.50177534431049
C           10.56538690794389       -3.55493576007499        1.93553932329069
C           11.68445102275837       -4.03540218954043        1.27277328474779
C           12.17275054036958       -3.35588478240535        0.16712271363465
C           11.54983260302336       -2.20608390216270       -0.27779897344945
C           10.57610820816676        0.51728353790224       -0.52098478141024
C           10.15598102961640        1.27271557831824       -1.61741994949500
C           10.93418769779019        2.31701853149048       -2.07769339718398
C           12.13760227602070        2.62056175546082       -1.45951376987097
C           12.55958505609953        1.87118485992778       -0.37184408584371
C           11.78790553395233        0.82680995715569        0.09910593386345
C            7.60260330338902       -1.56826098122136       -0.25076193633161
C            6.23542806920977       -1.46149324241466       -0.23185984764611
C            3.33209574678172       -1.22134816630618        0.35068696072339
C            1.97185166977546       -1.11202042577039        0.37229581728346
N           -0.94241368407866        1.23653885662467        0.06905861299197
C           -0.53945377751500        2.58814566126646        0.10161560901587
C            0.03458480241955        3.11106994701752        1.25641474470020
C            0.44065031617490        4.43332971746439        1.28062433143675
C            0.27527160420340        5.23478431397550        0.16228057328334
C           -0.29911080220378        4.71340535687409       -0.98680478616791
C           -0.70654226417483        3.39227174632899       -1.02337198011280
C           -7.72535402591952       -3.68676736844499       -0.99970588285330
C           -8.83305574316997       -4.49857596937614       -1.09540767560755
H           -7.83603058215446       -6.99900174784252        0.97448900303501
H           -5.86627057642104       -5.53827690929868        1.13850347724950
H           -4.04297047651165       -4.80800439496482       -0.09502810511075
H           -2.07004767306500       -3.31697681808886        0.03781353544430
H           -6.59969326670703       -1.40153771343344       -0.09884368488246
H           -6.77690683923188        0.51078959577438        0.04649880967356
H           -8.36203180045129        1.41907144077327        1.16778731037475
H          -10.59906032965720        2.39776548836916        1.16324276022881
H           -9.06421005255263        5.91373138527808       -0.74921873881511
H           -6.82769478925104        4.92739913859120       -0.77166553879918
H           -5.02870508804482        4.38987590217920        0.35560521088128
H           -2.81928820970685        3.40939908423760        0.30449303539718
H            1.69509360532959        2.13488280175411       -0.60020883554541
H            4.09222161330605        1.93511611425759       -0.62178804008706
H            5.96988464987939        1.84193536441734        0.46052771772717
H            8.39458308813347        1.65898130409646        0.41218132856967
H            9.07591085573149       -2.01972767980714        2.02860517137528
H           10.18508887647292       -4.07477762953257        2.80221544885901
H           12.17377045612590       -4.93394171023677        1.61650524540043
H           13.04034559714386       -3.72822110811531       -0.35687056457998
H           11.92231045029959       -1.68445259010921       -1.14692482280200
H            9.22739036998184        1.02459771121758       -2.10999027388522
H           10.60361036957719        2.89175217099060       -2.93004089644508
H           12.74399292062609        3.43562895682708       -1.82415302316563
H           13.49300483050247        2.10616606390234        0.11761362850106
H           12.11110678054364        0.25104857667121        0.95367611260121
H            8.06707008833735       -2.51920468644431       -0.46624541313603
H            5.64267580957260       -2.33572827657879       -0.45075204241248
H            3.78578908319701       -2.15995639735564        0.62992042155170
H            1.35188734082006       -1.95294780249287        0.64014472838994
H            0.16006809857481        2.47623569452072        2.12128140836784
H            0.88416658044659        4.83836629765410        2.17763376685350
H            0.59246145664837        6.26627444292978        0.18556935327123
H           -0.42846541934979        5.33530043969312       -1.85989015335573
H           -1.15552370107316        2.97475565314134       -1.91303657543059
H           -7.69017673102309       -2.77103238218963       -1.57103459951944
H           -9.66891685993502       -4.21790739039997       -1.72012648629866
