101
 energy: -159.880022054886 gnorm: 0.000120424766 xtb: 6.7.1 (edcfbbe)
N          -11.21157624948532       -7.04006650531755       -0.58375629437952
C          -10.26560833541696       -6.39120531001425       -0.52610286726000
C           -9.10400302937746       -5.59434067970982       -0.45337202540530
C           -8.04702555222655       -5.97213554013297        0.37844667150988
C           -6.91233983153409       -5.19128258014355        0.44093730918181
C           -6.80528124239988       -4.02063054197137       -0.31219948957789
C           -5.59240643827171       -3.19435043223851       -0.23606512180344
C           -4.32663922283370       -3.79862615143387       -0.22448362901715
C           -3.19976790078198       -3.02150691963865       -0.16656124806500
C           -3.29827883907372       -1.62661098411286       -0.09932699885686
C           -4.56119547976617       -0.99029513068499       -0.08781009195486
C           -5.69010508665241       -1.81509349116786       -0.17159521095736
C           -4.64872160887114        0.45669692856248        0.02938394890660
C           -5.88338343844360        1.10866181923668        0.11842656486585
C           -5.99684091231336        2.48008553186154        0.26647113674440
C           -7.31801891090445        3.11660825127597        0.34289172744332
C           -8.35954090693054        2.51899428936243        1.05568958724463
C           -9.60280970748474        3.11115313915869        1.12390573193920
C           -9.83058377216350        4.32464870188462        0.47031201148572
C          -11.10092907567004        4.93482136805272        0.53307764278806
N          -12.13453709327518        5.43296600118049        0.58390582372048
C           -8.79596616218446        4.93366600608748       -0.24413336437614
C           -7.55644745818113        4.33256625080986       -0.30095038396199
C           -4.82862725431503        3.24822544439943        0.34987048238594
C           -3.60021680007929        2.64615353275719        0.26663862307750
C           -3.47559920474039        1.26034984670162        0.08382642288788
C           -2.22634222003183        0.58882317086556       -0.01880166012062
C           -2.14024906660097       -0.80330872112065       -0.05946136963274
N           -0.83948680340503       -1.19396050257072       -0.07694447700596
C           -0.13011739772720       -0.09027711075124       -0.06541715579559
C            1.32300084950671       -0.08919112070819       -0.08576228235744
C            2.07688085533984        0.87599619110125       -0.75189285694864
C            3.45549585525981        0.81607213651927       -0.73965477586269
C            4.12758287653184       -0.20895615262073       -0.07430451272742
C            5.59356320657947       -0.26259361212023       -0.05838179203573
C            6.35320418372803        0.90111331921930        0.06503806885753
C            7.73060632651311        0.85376113018296        0.09326645059780
C            8.40079035466420       -0.36592614373250       -0.01833689927377
N            9.79606220948551       -0.41884256009328        0.00531299989920
C           10.44574761583577       -1.49483022365439        0.62492337220996
C            9.93818150885593       -2.04437171060323        1.80232135098066
C           10.57928441710268       -3.10841927951123        2.40711198171744
C           11.73686183397299       -3.63538332686443        1.85707749040427
C           12.24884357131946       -3.08897503210496        0.69112475233746
C           11.60984111032244       -2.03048687726595        0.07421135326983
C           10.54945574822441        0.60113634040923       -0.59032541161222
C           10.12516581234108        1.19200891410617       -1.78065173486846
C           10.86903078023931        2.20134346555811       -2.36116387418989
C           12.04819525886853        2.63135539842512       -1.77408310046105
C           12.47796755840647        2.04293365097359       -0.59545644699639
C           11.73618519572375        1.03928062240207       -0.00248776250504
C            7.64599410184612       -1.53287099735762       -0.15267764170445
C            6.26873971612512       -1.47897147151977       -0.16404488853069
C            3.36747119825409       -1.18685116661050        0.56953238577416
C            1.99072804193817       -1.13018457349904        0.56258286520279
N           -0.92382026235867        1.03461843895327       -0.03470956372899
C           -0.45025890311255        2.36545002848690       -0.00428036226738
C            0.26526880277084        2.81496041113092        1.09872303888360
C            0.75242706166298        4.11026849545839        1.11608823308125
C            0.52815915218376        4.95402270524833        0.04068361671291
C           -0.18367806519593        4.50266704689013       -1.05978858713942
C           -0.67292056245261        3.20920893105031       -1.08865144748175
C           -7.86926171781184       -3.65187111756839       -1.13743251294894
C           -9.00709507594663       -4.42699724838598       -1.21462351811064
H           -8.12869178119201       -6.87372368315990        0.96808018737902
H           -6.10313057266185       -5.47876893234013        1.09536902802717
H           -4.24579825157049       -4.87324550634323       -0.29175095524999
H           -2.21252132912797       -3.45746230727256       -0.17577839913794
H           -6.67850680940570       -1.38466387124039       -0.16450777384919
H           -6.79354455960410        0.53546904152910        0.05432374403338
H           -8.18487059621662        1.59106374765194        1.57938455202068
H          -10.40355449197783        2.64675372255086        1.68098621464822
H           -8.97722146538374        5.87105597271190       -0.74970321301773
H           -6.76555618998352        4.79921004725372       -0.86866442006997
H           -4.89475280913795        4.31386832463626        0.50984932910864
H           -2.71130455241412        3.24922734031041        0.35604960937736
H            1.58858046816580        1.66413516349919       -1.30428661900732
H            4.02067361703090        1.56267427881977       -1.27774382063133
H            5.85537353339533        1.85336613113506        0.17505900583103
H            8.30118669159144        1.76375153134066        0.20931281244906
H            9.04088382730302       -1.62949633189631        2.23825882323789
H           10.17628446479965       -3.52313921011481        3.31977214219110
H           12.23711368508610       -4.46473131009960        2.33434065036039
H           13.14867315137606       -3.49552981925477        0.25255162460541
H           12.00642172881248       -1.61256812011672       -0.83975072517018
H            9.21206147022507        0.85119413596003       -2.24679872530756
H           10.52932343558446        2.64904776868657       -3.28400422785629
H           12.62846599076526        3.41821510888766       -2.23225898877018
H           13.39416297779068        2.37399882067010       -0.12826368182665
H           12.06980748564177        0.58861156398808        0.92107192650917
H            8.15108173525778       -2.48245044012935       -0.25424381140371
H            5.70599984826714       -2.39207364581342       -0.29074823385693
H            3.86466894694556       -1.98638079116208        1.09847207475101
H            1.40486712716592       -1.88600704632100        1.06312304284020
H            0.43649203499914        2.14704449990129        1.93008683342504
H            1.30696589169269        4.45942945695170        1.97386197684356
H            0.90985771491071        5.96352363714532        0.05806561521975
H           -0.35662069951488        5.15709901324382       -1.90084468184315
H           -1.22711461558547        2.84492074831689       -1.94185995864121
H           -7.79132696053977       -2.75956819960088       -1.74060836021140
H           -9.82511479971028       -4.14243823811719       -1.86055282815766
