  101
       -159.80777809
 N        -11.2300905104       -7.0188789386       -0.8410126973
 C        -10.2880667768       -6.3727437554       -0.7304652967
 C         -9.1284018149       -5.5788330877       -0.5982452906
 C         -8.1004466209       -5.9781230044        0.2581514392
 C         -6.9671000830       -5.2022927394        0.3765454167
 C         -6.8327251219       -4.0150028298       -0.3448853469
 C         -5.6181064378       -3.1983188429       -0.2231530722
 C         -4.3579672606       -3.8127804674       -0.1805994077
 C         -3.2259801640       -3.0452943712       -0.1057576524
 C         -3.3154409117       -1.6497481690       -0.0544501064
 C         -4.5729811651       -1.0033117801       -0.0593215277
 C         -5.7067119085       -1.8184540955       -0.1594779145
 C         -4.6495023438        0.4442429474        0.0490301931
 C         -5.8768721656        1.1036978898        0.1702067977
 C         -5.9771124838        2.4771673668        0.3047138084
 C         -7.2884646033        3.1243893065        0.4291741171
 C         -8.2958617475        2.5524785067        1.2080783053
 C         -9.5261168968        3.1626119158        1.3333119719
 C         -9.7740475158        4.3663165039        0.6703324657
 C        -11.0312902638        4.9957584601        0.7915404917
 N        -12.0514335855        5.5099064565        0.8993506595
 C         -8.7753509484        4.9464587245       -0.1140027047
 C         -7.5481999207        4.3288108081       -0.2267273997
 C         -4.8036244305        3.2401065744        0.3375502494
 C         -3.5815578883        2.6300083530        0.2295185331
 C         -3.4707128222        1.2408634319        0.0671698158
 C         -2.2287546111        0.5580333665       -0.0372051896
 C         -2.1514475128       -0.8355294878       -0.0299695488
 N         -0.8545532835       -1.2344385285       -0.0375224938
 C         -0.1377476228       -0.1380874856       -0.0686425936
 C          1.3145382205       -0.1414800136       -0.0916037108
 C          2.0684914514        0.7929123652       -0.8000454844
 C          3.4466345825        0.7379659870       -0.7758248608
 C          4.1167401583       -0.2510319330       -0.0564913308
 C          5.5819361069       -0.2911390380       -0.0250934478
 C          6.3278924594        0.8855029964        0.0453645799
 C          7.7051185289        0.8553592487        0.0795337430
 C          8.3890812993       -0.3603943700        0.0279705597
 N          9.7835341287       -0.3932494967        0.0492155275
 C         10.4531732289       -1.4333877766        0.7059855147
 C          9.9579100699       -1.9481445509        1.9036053328
 C         10.6219233002       -2.9746364554        2.5466351140
 C         11.7892622032       -3.4975457618        2.0147114357
 C         12.2877703076       -2.9863780730        0.8276350534
 C         11.6267682168       -1.9653460899        0.1728377011
 C         10.5192684984        0.6118011354       -0.5913775213
 C         10.0809008981        1.1465797050       -1.8023895398
 C         10.8086711292        2.1396005641       -2.4287192539
 C         11.9846154204        2.6087790423       -1.8666234791
 C         12.4272885193        2.0767974376       -0.6664726775
 C         11.7019330882        1.0894502962       -0.0280191071
 C          7.6478974919       -1.5410924248       -0.0471446509
 C          6.2704241082       -1.5035001175       -0.0651061786
 C          3.3561833194       -1.2031874872        0.6235848818
 C          1.9794720739       -1.1517701355        0.6052084875
 N         -0.9242524781        0.9939028292       -0.0741204139
 C         -0.4428557362        2.3182773860       -0.1194741146
 C          0.3312939316        2.8066301462        0.9259041398
 C          0.8325680934        4.0945331324        0.8610743085
 C          0.5637938704        4.8934139673       -0.2378764094
 C         -0.2091083527        4.4043235006       -1.2789534905
 C         -0.7117519124        3.1174693788       -1.2266516909
 C         -7.8695359352       -3.6240871479       -1.1940113527
 C         -9.0057184170       -4.3937194248       -1.3259410536
 H         -8.2024342577       -6.8935097459        0.8224591343
 H         -6.1802704527       -5.5069949450        1.0503276461
 H         -4.2860131732       -4.8882550124       -0.2436443836
 H         -2.2419363471       -3.4873345147       -0.0973263916
 H         -6.6918608799       -1.3790510555       -0.1751517052
 H         -6.7925058529        0.5348388498        0.1478901304
 H         -8.1020709320        1.6314595177        1.7373437569
 H        -10.3008144005        2.7192214034        1.9414248014
 H         -8.9728496973        5.8766108136       -0.6261148617
 H         -6.7809402508        4.7760440118       -0.8407604116
 H         -4.8611247017        4.3087177563        0.4836274947
 H         -2.6873068868        3.2294542659        0.2907444000
 H          1.5819745007        1.5508244282       -1.3954020754
 H          4.0143742220        1.4587065295       -1.3459589886
 H          5.8187232327        1.8359656857        0.1075036018
 H          8.2656597789        1.7759104850        0.1536531593
 H          9.0535429488       -1.5344085518        2.3254994591
 H         10.2291219973       -3.3626965477        3.4749693024
 H         12.3069487096       -4.2972270014        2.5218648768
 H         13.1946888255       -3.3908742227        0.4028821331
 H         12.0123253803       -1.5737466452       -0.7571890841
 H          9.1698746567        0.7739780144       -2.2481263535
 H         10.4588404968        2.5434717978       -3.3677035603
 H         12.5523316177        3.3821627161       -2.3608266685
 H         13.3407640035        2.4390686296       -0.2185494873
 H         12.0441987634        0.6818294453        0.9123903839
 H          8.1643660102       -2.4884247867       -0.1002968223
 H          5.7180459519       -2.4272915741       -0.1480195837
 H          3.8538504153       -1.9760104168        1.1905278565
 H          1.3910043095       -1.8853945430        1.1341640478
 H          0.5372971382        2.1736043342        1.7759828657
 H          1.4342293491        4.4739610835        1.6727388395
 H          0.9573097389        5.8972785983       -0.2848921705
 H         -0.4185580603        5.0245460717       -2.1376284407
 H         -1.3138043649        2.7234841838       -2.0333437798
 H         -7.7696981699       -2.7182423113       -1.7737411501
 H         -9.8021449269       -4.0909772837       -1.9899243335
