  101
       -159.73004073
 N        -10.8720673543       -7.3296192431       -0.5144348311
 C         -9.9527512988       -6.6444211827       -0.4462060577
 C         -8.8234050213       -5.8050183380       -0.3729675004
 C         -7.7227760681       -6.1743285811        0.4059938937
 C         -6.6224521204       -5.3491515988        0.4738405503
 C         -6.5876375424       -4.1367235599       -0.2213215495
 C         -5.4157602671       -3.2618941820       -0.1383057328
 C         -4.1250689912       -3.8014069629       -0.1177173084
 C         -3.0365557122       -2.9676718351       -0.0472651304
 C         -3.2035947026       -1.5799154048        0.0130822380
 C         -4.4952398597       -1.0034925799        0.0001311577
 C         -5.5774797769       -1.8796753901       -0.0781775664
 C         -4.6553295313        0.4451464225        0.0878230605
 C         -5.9074938701        1.0356967372        0.0884900002
 C         -6.1086997594        2.4185535800        0.1847276829
 C         -7.4391953539        2.9892541201        0.1455939854
 C         -8.5581013051        2.2819094346        0.6194416929
 C         -9.8174101637        2.8269968097        0.5805968120
 C        -10.0138183587        4.1108736393        0.0525164789
 C        -11.2993592482        4.6719302056        0.0022646053
 N        -12.3512854885        5.1380322783       -0.0320655278
 C         -8.9091858620        4.8291709095       -0.4271033637
 C         -7.6534165780        4.2781873083       -0.3744615237
 C         -4.9681650681        3.2372066029        0.3274548163
 C         -3.7176162146        2.6981692447        0.3313105491
 C         -3.5053605761        1.3045251524        0.1781416392
 C         -2.2433388582        0.7069723227        0.1231186568
 C         -2.0816596663       -0.7107710395        0.0793089437
 N         -0.7946814920       -1.0396544972        0.1040595794
 C         -0.0990091874        0.1011210401        0.1300141186
 C          1.3129622946        0.1091448899        0.0911557527
 C          2.1234837961        1.2392592072       -0.1743035426
 C          3.4856262231        1.1388157320       -0.1915873578
 C          4.1514316881       -0.0857966623        0.0352029154
 C          5.5888271915       -0.1734630754        0.0143882378
 C          6.3989128419        0.9387697123        0.3187440619
 C          7.7674371489        0.8615082577        0.2944857587
 C          8.4116654561       -0.3377250788       -0.0427628553
 N          9.7973018292       -0.4158925202       -0.0780370261
 C         10.4475310488       -1.6067530122        0.2707484392
 C          9.9755921749       -2.3851959116        1.3281967747
 C         10.6232308993       -3.5565072227        1.6685816180
 C         11.7469441255       -3.9657700067        0.9681068176
 C         12.2205873589       -3.1939997223       -0.0811550473
 C         11.5782479773       -2.0231608926       -0.4328060019
 C         10.5582531857        0.6943506275       -0.4654014573
 C         10.1173172472        1.5294466720       -1.4928490466
 C         10.8726009006        2.6225178797       -1.8695109881
 C         12.0746311857        2.8964660849       -1.2363004844
 C         12.5186941509        2.0668863271       -0.2186636203
 C         11.7690682680        0.9738917247        0.1693775817
 C          7.6195086089       -1.4548516782       -0.3453690407
 C          6.2512846169       -1.3729141741       -0.3140960905
 C          3.3386153288       -1.2201990072        0.2651186471
 C          1.9793446581       -1.1290337161        0.2936420767
 N         -0.9628223666        1.2067300864        0.1492882383
 C         -0.5839486819        2.5598805793        0.2429118941
 C         -0.0229654772        3.0409962300        1.4221195092
 C          0.3543890102        4.3685728104        1.5082965338
 C          0.1740083840        5.2169076739        0.4277648444
 C         -0.3858737585        4.7368942312       -0.7459698985
 C         -0.7654420678        3.4112242182       -0.8444167712
 C         -7.6948955050       -3.7786028131       -0.9962354212
 C         -8.7987824311       -4.5978966496       -1.0777188590
 H         -7.7474028379       -7.1054157812        0.9530806986
 H         -5.7841616139       -5.6305210893        1.0936941037
 H         -3.9883180054       -4.8701721314       -0.1869611397
 H         -2.0295717778       -3.3546212114       -0.0423266790
 H         -6.5858647500       -1.4990230180       -0.0698913816
 H         -6.7829710049        0.4183815179       -0.0243669696
 H         -8.4247187684        1.3042351210        1.0578261961
 H        -10.6663874444        2.2768808242        0.9602332763
 H         -9.0604312452        5.8152750439       -0.8419623048
 H         -6.8187640351        4.8347270688       -0.7730723023
 H         -5.0885444206        4.3000027328        0.4726042529
 H         -2.8661717269        3.3435829871        0.4726831548
 H          1.6693263964        2.1892706305       -0.4043342678
 H          4.0651944651        2.0173372252       -0.4335598503
 H          5.9367069800        1.8651214130        0.6231356890
 H          8.3629963875        1.7229466744        0.5605212075
 H          9.1088012744       -2.0570566984        1.8833584250
 H         10.2528835610       -4.1487144865        2.4917885548
 H         12.2515323644       -4.8800409043        1.2393126166
 H         13.0930196819       -3.5084463537       -0.6338058135
 H         11.9409417359       -1.4260792424       -1.2569212833
 H          9.1885033054        1.3055995024       -1.9972126545
 H         10.5245230947        3.2588531036       -2.6692483195
 H         12.6623048041        3.7506925132       -1.5348817911
 H         13.4509571728        2.2773843408        0.2833431558
 H         12.1073153300        0.3359740792        0.9729187026
 H          8.0997178311       -2.3796087574       -0.6310407438
 H          5.6730063159       -2.2400543215       -0.5925664139
 H          3.8048586764       -2.1737745903        0.4618508263
 H          1.3677361747       -1.9959676917        0.4859563483
 H          0.1149981799        2.3691989743        2.2563935437
 H          0.7870356107        4.7420806302        2.4240926477
 H          0.4694143387        6.2524853421        0.4994853394
 H         -0.5249717769        5.3959664819       -1.5895832389
 H         -1.2040892744        3.0251712302       -1.7529418904
 H         -7.6742880012       -2.8583254558       -1.5612070487
 H         -9.6472056624       -4.3195686973       -1.6857363156
