101
 energy: -159.879993508812 gnorm: 0.000078153806 xtb: 6.7.1 (edcfbbe)
N          -11.73819889188449       -7.26699037399448       -0.35228690487788
C          -10.79911150911919       -6.60814968885030       -0.29506363313787
C           -9.64579847957428       -5.79914900771281       -0.22437273570058
C           -8.61618177791017       -6.12381104054908        0.66242972794995
C           -7.48978965821114       -5.33098139834666        0.72347426757342
C           -7.36353340379825       -4.20061336588246       -0.08618895770187
C           -6.15743491068520       -3.36412831389413       -0.01677846129240
C           -4.89075084951914       -3.95954395820407        0.07729341194089
C           -3.76786379568715       -3.17523360902658        0.11076878478493
C           -3.87143591529925       -1.77969110419531        0.07097815622482
C           -5.13673431022462       -1.15052929944530        0.01101660599009
C           -6.26054179182103       -1.98400042342269       -0.04820764161342
C           -5.23197426182431        0.30055018317424        0.02768893203050
C           -6.46917634794560        0.95070547031662        0.09167098284533
C           -6.58776032670420        2.32867031166961        0.14150169097623
C           -7.90957245878356        2.96513948663668        0.20930607033854
C           -8.92123040047923        2.42577768554088        1.00634262240305
C          -10.16100104182067        3.02487093657061        1.07878986973701
C          -10.41518082396690        4.18512505031583        0.34346236309164
C          -11.68019673000992        4.80538343995440        0.41441606768442
N          -12.70875529990058        5.31310131978034        0.47216344866489
C           -9.41213400541269        4.73235251050369       -0.46038210404331
C           -8.17513256840826        4.12626369271354       -0.51932450833458
C           -5.42336013016196        3.10691397220608        0.14314502171703
C           -4.19257399960295        2.50645668797125        0.08781331118538
C           -4.06284926879441        1.11128031197226        0.01212844328337
C           -2.81063103640161        0.43905039265204       -0.03542006613149
C           -2.71722540454392       -0.95011906869402        0.05702806936575
N           -1.41347910835218       -1.33321673234053        0.08811269844540
C           -0.71145287014280       -0.22944050169236       -0.00300597747492
C            0.74243284066106       -0.21041130506719       -0.02223961126476
C            1.47408009490102        0.65080148676271       -0.83843752627259
C            2.85349501490976        0.62027983932769       -0.82563680667540
C            3.54789068847204       -0.26918672282323       -0.00562881169604
C            5.01482194991151       -0.28938953210967        0.00801378367855
C            5.74910388016468        0.89388169901517       -0.07884718296615
C            7.12739995918270        0.88060309498110       -0.06246955040037
C            7.82377186342390       -0.32591973081702        0.02926724915277
N            9.22043554567376       -0.34409441830443        0.03912596517267
C            9.90473266910006       -1.26920436674137        0.83844952375543
C            9.42518489669971       -1.59977265465461        2.10600699160817
C           10.10467991966297       -2.51062695591914        2.89194813976440
C           11.27236992398439       -3.09984839856072        2.43434043533111
C           11.75457981650012       -2.77291131072494        1.17704588017928
C           11.07743569956646       -1.86964390088314        0.38031097975580
C            9.94018217532775        0.56048576053001       -0.75243310374722
C            9.48635218273352        0.90265494756625       -2.02638573237860
C           10.20066792748144        1.79363769955626       -2.80421698564291
C           11.37816898030130        2.35098969400131       -2.33209992616733
C           11.83524904224581        2.01199968001202       -1.06860964972168
C           11.12326230237185        1.12869595272181       -0.27989433231439
C            7.09477144363562       -1.51380361062629        0.11091073544389
C            5.71648098972821       -1.49139497391442        0.10617435595823
C            2.80946059589168       -1.14424190020216        0.79269957822727
C            1.43125651981538       -1.11936814672897        0.78204570259402
N           -1.51053197342757        0.88862696433279       -0.08603621891254
C           -1.03952686516403        2.21529637101802       -0.19978827830320
C           -0.29100495458512        2.77100412532059        0.83049748409414
C            0.19550604471705        4.06039955391187        0.70349883251298
C           -0.06157515265340        4.79322679629506       -0.44348065524691
C           -0.80700326784814        4.23619367966807       -1.47080052072695
C           -1.29554275908435        2.94740556671182       -1.35551039952530
C           -8.40036976161805       -3.88486792582911       -0.96642480241139
C           -9.52994812654777       -4.67207878615366       -1.04165044032950
H           -8.71198214941171       -6.99458095913235        1.29472991397174
H           -6.70276079506511       -5.57693196538111        1.42041820540272
H           -4.80439160196719       -5.03574421284400        0.08811505396018
H           -2.77966676716435       -3.60663616533990        0.15718205925043
H           -7.24910677950582       -1.55752601152321       -0.10429114331175
H           -7.37667948703832        0.36956749840365        0.09236250295330
H           -8.72431240073272        1.54066942399058        1.59261591347896
H          -10.93815374731272        2.60809914748847        1.70289108802501
H           -9.61532554007536        5.62698199076767       -1.03096522643232
H           -7.40773368467892        4.54494444695166       -1.15291374395173
H           -5.49396388014558        4.18132137491193        0.22233479139699
H           -3.30590651969225        3.11865764063372        0.12039877832514
H            0.96629423589519        1.33076863302948       -1.50577731220661
H            3.40198409498951        1.28014567370645       -1.48139900760293
H            5.23112421001127        1.84046859533382       -0.12706178807470
H            7.67889429767390        1.80817943940457       -0.11404470169380
H            8.52074909917073       -1.13412420394522        2.46988788203838
H            9.72402159853260       -2.75466135016916        3.87320354549460
H           11.80303258519249       -3.80792350587308        3.05310720841552
H           12.66123915811657       -3.23104636676638        0.80903926092578
H           11.45122599286370       -1.62373271782208       -0.60309437608371
H            8.57475860147770        0.46089302805755       -2.40189772985050
H            9.83952193680108        2.04688187578295       -3.79055021804203
H           11.93599278678324        3.04348504690763       -2.94459149156864
H           12.74962922193819        2.44512536158652       -0.68961202208234
H           11.47785436373323        0.87300045263748        0.70811929527294
H            7.62085339418152       -2.45555998621188        0.17015585092069
H            5.17366388358016       -2.42428518108182        0.14516474573677
H            3.32390685095687       -1.83639740130909        1.44266469888171
H            0.86281109393554       -1.79708856761980        1.40087667050615
H           -0.09490813603188        2.19040238836278        1.71987838426410
H            0.77577118735170        4.49198643697416        1.50494299153568
H            0.31990391146853        5.79846170887455       -0.53878081011676
H           -1.00617170233336        4.80372494396504       -2.36737251882516
H           -1.87556724014956        2.50102665332384       -2.15069054752539
H           -8.30728515990470       -3.02537664662657       -1.61348992691073
H          -10.32652564266688       -4.42863735678779       -1.72979793492135
