  115
       -171.97672258
 C         -0.8996971143       -8.7620941758       -2.8892899863
 C          0.1772756540       -7.8296017500       -3.4506268597
 C         -0.0076622041       -7.7445550160       -4.9724887739
 C          1.5513423483       -8.4332173938       -3.1252620701
 C          0.1045930037       -6.4304932692       -2.8625933667
 C         -0.8377263479       -6.0557122311       -1.9120754244
 C         -0.8650671406       -4.7746479777       -1.3937848700
 C          0.0577831022       -3.8161863715       -1.8002397138
 C          0.0411464540       -2.4698929816       -1.2180739323
 C          1.2317294152       -1.8026890108       -0.9436348978
 C          1.2301478540       -0.5497523053       -0.3469816025
 N          2.4379978698        0.0773971350       -0.0524821350
 C          3.5055889629       -0.5094224011        0.6032624002
 C          3.6311752171       -1.7831893118        1.1372517027
 C          4.8182713530       -2.1098518483        1.7614681681
 C          5.8722303553       -1.1953446777        1.8828692458
 C          7.1210246375       -1.5952021114        2.5488326799
 C          7.6856240464       -2.8459900552        2.3096404332
 C          8.8627760605       -3.2183031053        2.9315282888
 C          9.4933192482       -2.3497473503        3.8064830193
 C          8.9399819242       -1.1045124928        4.0536008203
 C          7.7655430857       -0.7287668461        3.4287818201
 C          5.7251376516        0.0907796129        1.3786087101
 C          4.5454290708        0.4365442802        0.7398224156
 C          4.0796131603        1.6496268540        0.1243793752
 C          4.6547857763        2.8952382755       -0.0685502654
 C          3.9364993161        3.8765530418       -0.7393429215
 C          4.5110388279        5.2153806958       -0.9392503402
 C          5.8502357310        5.3716155029       -1.2890647589
 C          6.3870282752        6.6318422414       -1.4755354485
 C          5.5966388387        7.7570044391       -1.3110242840
 C          4.2646715619        7.6136262918       -0.9600913781
 C          3.7249353206        6.3540735193       -0.7778646615
 C          2.6610439599        3.5812515472       -1.2372822485
 C          2.0752923644        2.3445840897       -1.0634718159
 C          2.7766127328        1.3854848471       -0.3499534771
 C          0.0074774708        0.0612146821       -0.0123948303
 C         -0.0138715352        1.2395319854        0.7625453413
 N         -0.0378014071        2.1528449572        1.4571625867
 C         -1.1976931160       -0.5862613100       -0.3398240846
 N         -2.4234648284        0.0068759086       -0.0466512904
 C         -3.4647426598       -0.6101405230        0.6213493474
 C         -3.5284751582       -1.8716919620        1.1934845961
 C         -4.6985215183       -2.2369722107        1.8278518713
 C         -5.7961411452       -1.3714038098        1.9202898708
 C         -7.0228877007       -1.8104658720        2.6022773344
 C         -7.5221201698       -3.0967445181        2.4103014656
 C         -8.6771215503       -3.5072460975        3.0493524696
 C         -9.3509283255       -2.6415384810        3.8943907903
 C         -8.8632681487       -1.3608569575        4.0939528741
 C         -7.7108056968       -0.9474661287        3.4522583833
 C         -5.7122414359       -0.0962921349        1.3749789598
 C         -4.5497300348        0.2875603480        0.7262885537
 C         -4.1383024719        1.5031636934        0.0777306508
 C         -4.7720346524        2.7121628541       -0.1584082327
 C         -4.1030392703        3.7015612495       -0.8678098390
 C         -4.7544244919        4.9937199689       -1.1299091617
 C         -5.5017298512        5.6231676816       -0.1369012086
 C         -6.1191580236        6.8355681568       -0.3811160398
 C         -6.0046459122        7.4380756705       -1.6227581350
 C         -5.2656090195        6.8209619349       -2.6180567287
 C         -4.6438891984        5.6105800086       -2.3739521646
 C         -2.8096031694        3.4553482682       -1.3451914635
 C         -2.1598480062        2.2599058101       -1.1168529541
 C         -2.8206064325        1.2884989504       -0.3819577152
 C         -1.1670372251       -1.8408124668       -0.9310517121
 C          1.0028903563       -4.1843277797       -2.7547153969
 C          1.0183143715       -5.4619723893       -3.2742379022
 H         -0.7960643994       -8.8786856002       -1.8128268483
 H         -1.8967439786       -8.3903016336       -3.1145759868
 H         -0.7988115344       -9.7456432210       -3.3431926889
 H          0.7728434280       -7.1475749097       -5.4360085439
 H         -0.9687870676       -7.2932784286       -5.2105028110
 H          0.0228139419       -8.7405653613       -5.4085006618
 H          2.3559973660       -7.8456125891       -3.5586932023
 H          1.6996025178       -8.4716572017       -2.0478624116
 H          1.6184638636       -9.4449808706       -3.5191146301
 H         -1.5687632797       -6.7624058260       -1.5553407929
 H         -1.5998839631       -4.5260880571       -0.6417854961
 H          2.1761763652       -2.2627019936       -1.1851435870
 H          2.8256493335       -2.5001717269        1.0831035698
 H          4.9300615791       -3.0939174895        2.1919167529
 H          7.2071992395       -3.5215590205        1.6149625647
 H          9.2916014763       -4.1894816476        2.7311709122
 H         10.4116413882       -2.6420020296        4.2936508680
 H          9.4247992356       -0.4239123560        4.7382727079
 H          7.3288257896        0.2370045606        3.6386414647
 H          6.5261492898        0.8086020228        1.4665055561
 H          5.6415802464        3.1040140548        0.3151945363
 H          6.4673326878        4.4967122760       -1.4352946138
 H          7.4261852470        6.7371136338       -1.7518069474
 H          6.0169051134        8.7411987044       -1.4555522789
 H          3.6440274034        8.4875613235       -0.8251764545
 H          2.6902522372        6.2476347179       -0.4858799970
 H          2.1307612504        4.3393891061       -1.7935682173
 H          1.1028992546        2.1393726073       -1.4824039175
 H         -2.6855564366       -2.5459453022        1.1629528894
 H         -4.7627063037       -3.2105766297        2.2907174691
 H         -7.0105638338       -3.7712113918        1.7385364151
 H         -9.0547108340       -4.5062297383        2.8859807266
 H        -10.2518198701       -2.9635018631        4.3951406597
 H         -9.3821075333       -0.6819843820        4.7550179724
 H         -7.3248645763        0.0466630732        3.6259727174
 H         -6.5486531723        0.5826377367        1.4388568744
 H         -5.7838235269        2.8716875907        0.1816171637
 H         -5.5792169023        5.1658491420        0.8388706648
 H         -6.6905266394        7.3140079387        0.4010501537
 H         -6.4888809959        8.3841679913       -1.8138562748
 H         -5.1754856214        7.2839371961       -3.5900686465
 H         -4.0840350282        5.1255878766       -3.1606998280
 H         -2.2993089283        4.2325851368       -1.8936896232
 H         -1.1682705432        2.0956451477       -1.5079760955
 H         -2.0988132118       -2.3148367809       -1.1946183655
 H          1.7174059279       -3.4564315668       -3.1107776436
 H          1.7637519570       -5.7038770224       -4.0164947654
