  46
        -74.53092501
 C         -0.4245641608       -5.2800938962        2.4749960715
 C         -0.7547646017       -4.5131400159        1.2008287260
 C          0.4266780230       -4.5047447663        0.2334644764
 C          0.1299405921       -3.7295596527       -1.0554608111
 N         -0.0577230778       -2.3231277580       -0.8098409020
 C          0.9583446234       -1.4267383966       -0.5987382109
 C          2.3363640024       -1.6152616919       -0.6307458153
 C          3.1489051670       -0.5310631382       -0.3914828117
 C          2.6277456788        0.7498389366       -0.1161813734
 C          3.4527926654        1.8976410588        0.1394305274
 C          4.8077600572        1.9986745413        0.1624151358
 C          5.4065063425        3.2515178175        0.4439452572
 N          5.8864648188        4.2666548008        0.6729494187
 C          5.7575364520        0.9800843777       -0.0664546365
 N          6.5871462682        0.2060725948       -0.2410891722
 C          1.2391159754        0.9315158704       -0.0867951422
 C          0.4127320901       -0.1469643549       -0.3271557888
 C         -1.0160318735       -0.3045942581       -0.3750855326
 C         -2.0626361954        0.5757658921       -0.1949311965
 C         -3.3745308136        0.1048164890       -0.3103173255
 C         -4.5301660384        0.9391798567       -0.1415816040
 C         -4.5955326639        2.2688035885        0.1354849013
 C         -5.8621788987        2.8896367589        0.2601731248
 N         -6.8921226270        3.3830616794        0.3573713522
 C         -3.5206365373        3.1627218129        0.3263183921
 N         -2.6938719600        3.9418928813        0.4908645738
 C         -3.5901601474       -1.2587635571       -0.6082299192
 C         -2.5573069127       -2.1473666298       -0.7899105095
 C         -1.2541125645       -1.6719695651       -0.6725377284
 H         -1.2762251968       -5.2803316313        3.1503728850
 H         -0.1683975859       -6.3118259480        2.2448539242
 H          0.4191556111       -4.8237898398        2.9876521680
 H         -1.0254484894       -3.4866660734        1.4587266449
 H         -1.6179348083       -4.9747983733        0.7155947686
 H          1.2928199635       -4.0590811430        0.7271703288
 H          0.6842258093       -5.5310602035       -0.0344999228
 H         -0.7729893830       -4.1219320118       -1.5279339179
 H          0.9609495585       -3.8483829278       -1.7573758239
 H          2.7697013077       -2.5810884073       -0.8382062738
 H          4.2169995642       -0.6703875296       -0.4151636631
 H          2.9106285544        2.8146353817        0.3432448259
 H          0.8191545420        1.9045487272        0.1202279599
 H         -1.8622039151        1.6093916498        0.0314198555
 H         -5.4845782051        0.4358844788       -0.2519430424
 H         -4.6069017895       -1.6130207518       -0.6954843593
 H         -2.7638523151       -3.1822069340       -1.0137959758
