  111
       -156.25602281
 C         -9.0752836037        1.7313127816       -2.3625702407
 C         -8.7300752562        0.2398693263       -2.3282897657
 C         -9.8375948583       -0.4866146895       -1.5515068545
 C         -8.6848856852       -0.2735720459       -3.7744399349
 C         -7.3915892567       -0.0336316433       -1.6586534290
 C         -6.9504754693       -1.3577459286       -1.5397305998
 C         -5.7590800764       -1.7023563581       -0.9329552163
 C         -4.9749356275       -0.6859086102       -0.4110227158
 C         -5.3761887582        0.6577057904       -0.5565501663
 C         -6.5795795807        0.9768433024       -1.1705858374
 C         -4.3280927250        1.4652347096        0.0067162058
 C         -4.1621897424        2.8380596282        0.1360435759
 C         -3.0184634317        3.3386068957        0.7360434380
 C         -2.7342543842        4.8279984245        0.8577843613
 C         -2.4808750899        5.1899796357        2.3281132545
 C         -1.4893375051        5.1529415009        0.0193717003
 C         -3.8929898733        5.6912210033        0.3520680665
 C         -2.0792964831        2.4305101106        1.2400148190
 C         -2.2261108379        1.0625667352        1.1353530330
 C         -3.3428943402        0.5733269941        0.4746281365
 N         -3.7402031960       -0.7315777980        0.2182333101
 C         -2.9740139479       -1.8590758332        0.4880701509
 C         -3.5431688536       -3.0256792232        1.0062550190
 C         -2.7498462422       -4.1257632921        1.2987722934
 C         -1.3886084876       -4.0359968984        1.1142497703
 C         -0.8011972149       -2.8768388264        0.6143703416
 C         -1.5970959667       -1.8006854121        0.2651656254
 C          0.6571015949       -2.9037140453        0.5869670073
 C          1.4795601185       -1.8451309039        0.2439146526
 C          2.8607998585       -1.9663449722        0.4033473877
 N          3.6583396809       -0.8549772942        0.1544409322
 C          3.3554262527        0.4374246550        0.5576903082
 C          2.3163173393        0.9149312179        1.3384099533
 C          2.2742613412        2.2683090052        1.6206478552
 C          3.2401601177        3.1654477213        1.1594118939
 C          3.1747201103        4.6570313591        1.4550854973
 C          3.0136526436        5.4129933737        0.1282761137
 C          4.4708579419        5.0962379760        2.1507836806
 C          2.0024511708        5.0334720633        2.3652166290
 C          4.2971467816        2.6684615069        0.4076279445
 C          4.3663266072        1.3158192259        0.1147236331
 C          5.3288484236        0.5101025587       -0.5880229109
 C          6.5152427435        0.8160065001       -1.2404571693
 C          7.2412715401       -0.1908974992       -1.8555863760
 C          8.5595882343        0.0665953996       -2.5703660315
 C          8.4234389143       -0.3375515353       -4.0452587278
 C          9.6625228021       -0.7662900380       -1.9013373815
 C          8.9784271228        1.5386535560       -2.5175727571
 C          6.7330982565       -1.4957806589       -1.8209554608
 C          5.5555496594       -1.8271887378       -1.1808595913
 C          4.8586055144       -0.8178363696       -0.5363828339
 C          3.4067037588       -3.1732407690        0.8478241627
 C          2.5823459401       -4.2464581558        1.1534542449
 C          1.2189322957       -4.0953891340        1.0375229805
 S         -0.1004684758       -5.2408413322        1.4685968498
 O         -0.1581666049       -6.3459860705        0.5460854160
 O         -0.0609404737       -5.5686148055        2.8705905920
 H         -9.1330828553        2.1425310066       -1.3572883874
 H        -10.0447329751        1.8678561575       -2.8373479182
 H         -8.3401477240        2.2909759522       -2.9364180069
 H        -10.8064930933       -0.2830366024       -2.0025232398
 H         -9.6833586488       -1.5620059949       -1.5504646566
 H         -9.8585781356       -0.1442333673       -0.5188407363
 H         -9.6288041055       -0.0674486151       -4.2746242774
 H         -7.8871065306        0.2216445202       -4.3243246197
 H         -8.5083315333       -1.3448923421       -3.8104960672
 H         -7.5575498135       -2.1555835197       -1.9391259165
 H         -5.4512369042       -2.7358742173       -0.8893160357
 H         -6.8535252791        2.0146064470       -1.2583988287
 H         -4.9339266324        3.4885693382       -0.2392321450
 H         -2.3277034593        6.2623852870        2.4273775142
 H         -3.3358824129        4.9055032856        2.9375553461
 H         -1.6012619505        4.6880294299        2.7204470399
 H         -1.6811030839        4.9499168033       -1.0323493098
 H         -1.2249212318        6.2028479905        0.1266762536
 H         -0.6398331263        4.5495467115        0.3279775622
 H         -3.6405329326        6.7428648846        0.4710256664
 H         -4.0855337494        5.5114710496       -0.7029985398
 H         -4.8000576574        5.4957529459        0.9194068365
 H         -1.1963898504        2.8017356140        1.7357751815
 H         -1.4912309543        0.4058391268        1.5749798605
 H         -4.6023836781       -3.0582754984        1.2072070358
 H         -3.1841503951       -5.0299606880        1.6953630406
 H         -1.1685662237       -0.9188175948       -0.1796340124
 H          1.0695397679       -0.9252243461       -0.1377590278
 H          1.5635354337        0.2561246695        1.7440566234
 H          1.4599119974        2.6212204721        2.2307735736
 H          2.9691475900        6.4848561828        0.3088109179
 H          2.0952740475        5.1085473812       -0.3699614568
 H          3.8454837269        5.2128407558       -0.5414465553
 H          4.4185457752        6.1523449635        2.4065468488
 H          4.6177361254        4.5262114122        3.0658197157
 H          5.3370223616        4.9462263942        1.5130556548
 H          2.0172632337        6.1057166322        2.5494456597
 H          1.0506874576        4.7911414031        1.8998303483
 H          2.0731071353        4.5264367106        3.3249752019
 H          5.0778048800        3.3202020824        0.0484552703
 H          6.8459051722        1.8407933308       -1.2550945683
 H          9.3503838643       -0.1324520982       -4.5765813940
 H          7.6221802489        0.2274355431       -4.5174383004
 H          8.2001888189       -1.3957196688       -4.1491661938
 H          9.7509716428       -0.4972768089       -0.8506326624
 H          9.4505776374       -1.8300863966       -1.9631858877
 H         10.6183836918       -0.5814032387       -2.3867533031
 H          8.2437648842        2.1728144179       -3.0086042074
 H          9.9276944730        1.6638068761       -3.0343510299
 H          9.1096336812        1.8715871719       -1.4904761829
 H          7.2746768590       -2.2873132189       -2.3156782915
 H          5.1909694756       -2.8430418108       -1.2007388842
 H          4.4732692933       -3.2552461387        0.9877348713
 H          2.9956445330       -5.1778204621        1.5071694642
