111
 energy: -156.232651279252 gnorm: 0.000061099707 xtb: 6.7.1 (edcfbbe)
C           -9.00693193766517        1.36521660821016       -3.08663519493736
C           -8.44893322332029       -0.06123898395675       -3.06854266658992
C           -9.54225127269055       -0.99526472164184       -2.52673476298733
C           -8.09650460345422       -0.45556942316314       -4.51129808346272
C           -7.20902166255974       -0.19524929354423       -2.19947387085736
C           -6.59063990197208       -1.44846367447306       -2.08595478223027
C           -5.46666197130185       -1.66307338987212       -1.31399569314001
C           -4.94239347806590       -0.58441123119402       -0.61223211252204
C           -5.52923834497530        0.69649989457634       -0.73377497684919
C           -6.65428714461219        0.88471295366155       -1.51773837721732
C           -4.72062580075142        1.58853289051340        0.06051611058751
C           -4.79905061214115        2.94269959655960        0.33780237736916
C           -3.85911611504776        3.53016226670970        1.18023438130743
C           -3.88047824731097        5.01154821066735        1.52048035847734
C           -4.08213236006221        5.17349572389116        3.03525871080042
C           -2.54230730396258        5.64202136007128        1.10461043066588
C           -5.00512691712893        5.76616352518211        0.80512585122670
C           -2.86562703953217        2.71786197231690        1.74485052707959
C           -2.76439581989974        1.36610808770181        1.48469282960357
C           -3.68831653461502        0.79824842363993        0.61606391113102
N           -3.83444911758693       -0.50860633833359        0.20247710117967
C           -3.00095206029577       -1.57441759948055        0.56110430729893
C           -3.59299915565228       -2.77910383849549        1.02776056146147
C           -2.77420626194761       -3.83072554049681        1.41081008668551
C           -1.41267430449253       -3.69139601278427        1.33479528493867
C           -0.78897319186640       -2.48583069739746        0.87750571770002
C           -1.63362040516384       -1.43079160100636        0.48405166292548
C            0.62049298845996       -2.52075636798826        0.89337571409794
C            1.52489122356813       -1.50995340264823        0.51720745128610
C            2.88144835603798       -1.72055144523504        0.62559817600013
N            3.77516253232676       -0.69871863221712        0.28514206735003
C            3.68160947127686        0.61683477611168        0.68806609148101
C            2.76334636886490        1.23570867243189        1.52436133446664
C            2.91760292723002        2.58662598913594        1.78110586787136
C            3.96356442887667        3.34180380735647        1.24283526132696
C            4.12514966653011        4.82804468532963        1.51882844392690
C            4.11317675975029        5.58841913698701        0.18326396152757
C            5.46470490793110        5.05849413851747        2.23569362871386
C            3.00767775863312        5.39635203611254        2.39841715093305
C            4.90107477618746        2.69891175389549        0.43212776591261
C            4.76844970277733        1.35167975048939        0.15748293866436
C            5.55375402949129        0.41519051033196       -0.60893273495545
C            6.70708207064108        0.54286572304415       -1.36309948874956
C            7.22546851235305       -0.56714220028468       -2.02471087671254
C            8.49248170482893       -0.49995295841126       -2.86168791519062
C            8.15682272071541       -0.88104507266348       -4.31200512364050
C            9.52278016226500       -1.48653245039092       -2.29028253837607
C            9.12298683615257        0.89606678140068       -2.86879695545573
C            6.54211899065484       -1.78737392424379       -1.92253254257369
C            5.38849224944901       -1.94137963679746       -1.18080691083952
C            4.90009591697833       -0.83400162430718       -0.49767131747026
C            3.40227429511526       -2.95176464512156        1.10845384865780
C            2.52407486539509       -3.96110180207336        1.47304686442442
C            1.17318365610473       -3.75508363116318        1.36544377611803
S           -0.15255311186815       -4.86262276488471        1.75960543264584
O           -0.17041075762526       -6.02684702847539        0.87991454075610
O           -0.17738541581804       -5.19609031422747        3.17992594951165
H           -9.29250245226951        1.68706842554698       -2.08780860144499
H           -9.89493625509916        1.39664868972093       -3.71462310639546
H           -8.28239354835537        2.06463798811698       -3.49715952302406
H          -10.44492094171485       -0.89865085201650       -3.12615544572175
H           -9.22772887428443       -2.03478700782896       -2.55253706425699
H           -9.78238646981560       -0.73708841536224       -1.49713965188961
H           -8.96787000124574       -0.33914515932343       -5.15214075431008
H           -7.29998342178472        0.18074547466517       -4.89200570433642
H           -7.76598980727080       -1.48858515923693       -4.57283364286693
H           -6.99715287954613       -2.28962440259868       -2.62525621550832
H           -5.00469606798653       -2.63725064405257       -1.26756649486977
H           -7.08007159023730        1.87094015117403       -1.58934705260817
H           -5.59507108972547        3.51841701297977       -0.10253961972036
H           -4.11937836992556        6.22929715652609        3.29481010851908
H           -5.01723412551356        4.70946871022859        3.34285311700903
H           -3.27362420809871        4.71342474379722        3.59638450365182
H           -2.37724709854133        5.50568626534174        0.03766807535076
H           -2.55152810115253        6.70840298274566        1.31921975165659
H           -1.70921707875389        5.19554308073380        1.63946569488725
H           -4.96138083306948        6.81928788750147        1.07531113764552
H           -4.90100194254487        5.69287815389018       -0.27504569713163
H           -5.98130034538049        5.38726158916657        1.09881984941199
H           -2.14599731759180        3.15458876078159        2.41924440392164
H           -1.99882977504069        0.76804966851343        1.95437475800690
H           -4.66339576600129       -2.84573161846138        1.12817752212680
H           -3.19666916309685       -4.75617902180298        1.77459355775818
H           -1.20911965699396       -0.51781004677318        0.09634388537023
H            1.15452847200435       -0.57900552817402        0.11702183651879
H            1.95658057646800        0.67925752257250        1.97592420092305
H            2.19578501774124        3.05475026297641        2.42867392421460
H            4.20511294450695        6.65724160869487        0.36365178521293
H            3.17931000223330        5.40644025047483       -0.34480783658681
H            4.93385221080986        5.28148882735190       -0.45864801261266
H            5.58974606291174        6.11572571952497        2.45949480030708
H            5.49223938919000        4.50225769246042        3.17071205123971
H            6.30384362363836        4.73881747881966        1.62433859941832
H            3.17244393661402        6.46166820925689        2.54658941016459
H            2.03628340010056        5.26999982466830        1.92622676466597
H            2.99699610424388        4.92156906381742        3.37686427050970
H            5.73627741762595        3.24001821542752        0.01713566460640
H            7.18300573965084        1.50637747238129       -1.42772343732596
H            9.04906051181857       -0.81194835119077       -4.93048507716166
H            7.40408997796549       -0.20606073740284       -4.71461357997760
H            7.77527476558583       -1.89593445030609       -4.37959289990219
H            9.75169233083340       -1.23589608486158       -1.25627627079099
H            9.15562210258573       -2.50854014737828       -2.31956365673565
H           10.44310551211982       -1.43978989735413       -2.86850659737278
H            8.44689678730401        1.62970718672038       -3.30167451676009
H           10.02842966551593        0.87940957086318       -3.47196068921054
H            9.39684472220232        1.20741111805293       -1.86334354563049
H            6.92022808074128       -2.65069196793110       -2.44727748551969
H            4.87691612263687       -2.89081952243815       -1.14398075146021
H            4.46533090766007       -3.07026493275590        1.23550625430723
H            2.89192272391487       -4.90536795645486        1.84770474591606
