111
 energy: -156.317692397775 gnorm: 0.000071538341 xtb: 6.7.1 (edcfbbe)
C           -3.38691944358609        2.94796031229027       -5.02163991231580
C           -3.44751079428211        3.27129694985517       -3.52114487884645
C           -2.18989890361182        4.04903826404465       -3.10507095583151
C           -4.66356466882879        4.17054754309363       -3.27792428503600
C           -3.51469868324612        1.97067816241402       -2.73248551937155
C           -2.46459022651422        1.05098059371403       -2.85125046136809
C           -2.43650228583878       -0.15081649554804       -2.17117126566068
C           -3.49467869459839       -0.44647190949055       -1.32628821530345
C           -4.57897736663671        0.44666610735338       -1.21365751909642
C           -4.58220664933696        1.64846396617371       -1.90942496692968
C           -5.53042916870183       -0.17140168334923       -0.32832017466513
C           -6.75980306037753        0.23127037048027        0.16831813362313
C           -7.45744832174630       -0.58625099089766        1.04894599548651
C           -8.81249640192755       -0.12728766149968        1.57137305766181
C           -8.63704367488454        1.19969962183629        2.32506980436750
C           -9.76453125268988        0.07273176690956        0.38240674576958
C           -9.45524043944615       -1.13530834854383        2.52910466312664
C           -6.87724327466956       -1.79910724640631        1.42980707092921
C           -5.65097828042846       -2.22496463696032        0.94946077986510
C           -4.98307424399972       -1.41680579769574        0.04570086143397
N           -3.74498664754752       -1.57641750817488       -0.56026862707777
C           -2.91309255864366       -2.68510664579940       -0.44466371694520
C           -3.44507850610678       -3.97379138376267       -0.55110001491746
C           -2.62467807815932       -5.08395638128610       -0.43194261464622
C           -1.27817868314593       -4.89145561651948       -0.22425004222524
C           -0.71967451809761       -3.61769184532193       -0.12382873675466
C           -1.54428168575083       -2.50790463036315       -0.22408862727737
C            0.72733380776887       -3.61696051467437        0.09899833766735
C            1.54833541498567       -2.50608238924958        0.21600025803725
C            2.91842956414238       -2.68234477424753        0.42878726282777
N            3.74689278988378       -1.57258636271124        0.55975303261832
C            3.49817001933240       -0.45857106633600        1.34890765466507
C            2.44507752292863       -0.18205024886704        2.20664609058783
C            2.47590331873149        1.00574842836912        2.91062965232344
C            3.52404855679207        1.92944597284381        2.80371935376094
C            3.46194252735140        3.21241362787095        3.62125412152343
C            2.19778568122636        3.99578375984746        3.23682699942963
C            4.67286330676716        4.12020415204200        3.38400306833059
C            3.41951729813494        2.85559261978890        5.11478912985387
C            4.58569907882984        1.62681205903672        1.96609762442664
C            4.57931534719205        0.43965959330826        1.24530091219594
C            5.52482500732346       -0.15743587516947        0.34013647893353
C            6.74989047897448        0.26658776478153       -0.15816002354094
C            7.43972685614618       -0.52949247905471       -1.05848137253128
C            8.79047472496184       -0.13366582371264       -1.63894147650084
C            9.82854964929610       -1.20541501033397       -1.27386362873966
C            9.28948264616197        1.21218340699372       -1.10380040429853
C            8.67130172744010       -0.02393870606989       -3.16648403773641
C            6.85977470529902       -1.74129374211989       -1.45668140817147
C            5.64332740873582       -2.18606866276601       -0.97766478923803
C            4.97937928483201       -1.39626656257180       -0.05223398849472
C            3.45549632588598       -3.97055830974010        0.51148229671943
C            2.63849254208432       -5.08145367581769        0.37651630587164
C            1.29065877840975       -4.89017783658908        0.17660142504334
S            0.00820585120134       -6.12060019932898       -0.03272703732986
O            0.20252361496984       -6.88022177310319       -1.24921352166314
O           -0.18352610086295       -6.89760085746065        1.17312059136201
H           -4.26267670429918        2.37384072377824       -5.31847853401362
H           -2.50135916856745        2.36879732073069       -5.26853082948124
H           -3.36432878258337        3.86796711708090       -5.60234969709126
H           -2.13630306528199        4.99088343634319       -3.64736256368254
H           -2.21711035558272        4.26562428053350       -2.03880164798630
H           -1.28537677235001        3.48490667142252       -3.31489986296696
H           -4.55754411135617        5.08682578828522       -3.85561362874591
H           -5.58228300890531        3.68092601357429       -3.59322113126325
H           -4.74489275079683        4.44348770402558       -2.22813343107615
H           -1.63606222935727        1.27593827971748       -3.50522979606940
H           -1.61802548154687       -0.83950468033417       -2.31640287635540
H           -5.42759011335178        2.30633032756608       -1.79813142174761
H           -7.15793781278283        1.18661266125283       -0.13617814229375
H           -9.59259680158821        1.53232719084509        2.72544041192143
H           -7.94109914129825        1.07324588088065        3.15225997483220
H           -8.25237688319579        1.97885521120746        1.67287227491026
H           -9.87930961088341       -0.85893756553884       -0.16847785092255
H          -10.74442898205053        0.38767054091773        0.73552635151976
H           -9.39082309810946        0.82892656166760       -0.30239298465572
H           -9.62349099502845       -2.09137324713125        2.03826149639383
H           -8.83665858627416       -1.28923618412644        3.41054596403316
H          -10.41974479790121       -0.75458742453290        2.85994404088199
H           -7.38556338959683       -2.44279371929184        2.12835977493337
H           -5.23123072381612       -3.15960339931522        1.28976979629834
H           -4.49800039980603       -4.09866107019842       -0.74806865293438
H           -3.02220567607739       -6.08349127038918       -0.51184851566454
H           -1.14830722592785       -1.51131231906665       -0.11428206823866
H            1.14864977219406       -1.50906508345247        0.12479903891998
H            1.62862340508518       -0.87501327105075        2.34307845887243
H            1.65137703260664        1.21625837749413        3.57443831361927
H            2.14901778950429        4.92615647056515        3.79904823028953
H            1.29687971379006        3.42564503592821        3.44598755365113
H            2.21153824454518        4.23446040615914        2.17501713939398
H            5.59619730378310        3.62717914797927        3.67979816447691
H            4.74262143262631        4.41451797080447        2.33918537223464
H            4.57023627306890        5.02424223721820        3.98125005273786
H            3.40049651647923        3.76226186234138        5.71623863971559
H            2.53888607149723        2.26769404906685        5.35880029382901
H            4.30057007142287        2.27817085558835        5.38867692504302
H            5.42932601881941        2.28804655931353        1.86212738336281
H            7.13708329056782        1.21785295065485        0.16592843131890
H            9.90567756634774       -1.30177852282500       -0.19245593476407
H           10.80538919034088       -0.92969286764350       -1.66609646730246
H            9.55989964413867       -2.17526818334225       -1.68353756520889
H            8.60516148862215        2.01596544754539       -1.36588782840861
H            9.41124315902631        1.18300467657917       -0.02331895464497
H           10.25813870087876        1.43999476965108       -1.54456108232195
H            9.62308467607668        0.28364939717186       -3.59490776350325
H            7.91773671358803        0.71486118469974       -3.43281222282148
H            8.38928382146872       -0.97352626967046       -3.61300819855347
H            7.37357158682080       -2.36353074159376       -2.17344164615097
H            5.22503705531913       -3.11630186543461       -1.33156055554701
H            4.50976351854949       -4.09488421783958        0.70168688965402
H            3.03974638914373       -6.08080759729145        0.43796639553909
