111
 energy: -156.232804005060 gnorm: 0.000087905371 xtb: 6.7.1 (edcfbbe)
C           -9.04964802831265        0.85048267533734       -3.10081536097130
C           -8.43158935773764       -0.54847967456110       -3.01528622754582
C           -9.48567877136549       -1.50149726436680       -2.43045734344298
C           -8.05895276264835       -0.99514898107240       -4.43758196867169
C           -7.18841022005510       -0.58784760596819       -2.14151506640271
C           -6.52375087106836       -1.80885472477345       -1.95961611953867
C           -5.39300136467349       -1.93825852828904       -1.17860318852329
C           -4.90905221987442       -0.80325412954997       -0.53948757706869
C           -5.54259276261260        0.44630570640078       -0.73185767735251
C           -6.67388130350504        0.54852184941994       -1.52269164704178
C           -4.76626781746584        1.41106835960484        0.00786126636594
C           -4.89350045247938        2.77512831580586        0.20721308998062
C           -3.97420315110250        3.44381914260983        1.01103704450130
C           -4.04883196406061        4.94074368328012        1.26469980280867
C           -4.25793228417458        5.18309837218993        2.76771313390318
C           -2.73368514458200        5.59346446339190        0.81147623416945
C           -5.19891101676126        5.61205249322782        0.50790540625332
C           -2.95101835166437        2.70179843760659        1.61786371590699
C           -2.80103316846102        1.34187341511936        1.43541312906950
C           -3.70499969632662        0.69191812040869        0.60415814100354
N           -3.80405325775206       -0.64081432850390        0.26657806608080
C           -2.93335826200444       -1.65496268193443        0.68214530827310
C           -3.48354661810843       -2.85083934352658        1.21792650867536
C           -2.62930380843112       -3.85325468000512        1.65197144333035
C           -1.27342353732797       -3.67467789603501        1.55886348258288
C           -0.69147875530882       -2.47612244687052        1.03280350586467
C           -1.57185081063109       -1.47101414990766        0.58990906554118
C            0.71854459128740       -2.46845575080582        1.03332610860603
C            1.58820466359413       -1.45503896792803        0.58836199557563
C            2.95165010539174       -1.62344593426511        0.68259173172473
N            3.81139721488382       -0.60191722902165        0.26291952834219
C            3.69422082851568        0.73226261826626        0.58894315906837
C            2.78002143856444        1.37754251217257        1.41265106810509
C            2.91118425639693        2.74099066377167        1.58292442334062
C            3.92537138196972        3.49125923338285        0.97116674792273
C            3.97859896629490        4.99149992012095        1.21011626949241
C            5.11797993060499        5.67184904893275        0.44524355782611
C            4.18578511788758        5.25137173876898        2.71045028746780
C            2.65375030544250        5.62093179342763        0.75218783484222
C            4.85599330710218        2.82749859236921        0.17632210379869
C            4.74776826506659        1.46005413202621       -0.01058559597331
C            5.53917118038376        0.49909849407742       -0.73922064282104
C            6.67217046347279        0.60917316157004       -1.52654681019459
C            7.20380145833426       -0.52569549924364       -2.13356313676709
C            8.45077550087816       -0.47817204979495       -3.00147856994421
C            8.09259570336333       -0.94652747870659       -4.42049707362278
C            9.51511465064570       -1.40904099135998       -2.39976148383486
C            9.04895133736919        0.92855461393386       -3.10002164037914
C            6.55369941365808       -1.75338890603382       -1.94440549577864
C            5.42142670584215       -1.89063033301536       -1.16694177357149
C            4.92094976424266       -0.75681948105661       -0.53853180080677
C            3.51432377775363       -2.81125366979238        1.22365834742605
C            2.67078137223634       -3.82262533901751        1.65775074846075
C            1.31310546198977       -3.65993557871782        1.56147734645533
S            0.02573077982583       -4.78405244304488        2.02887376992366
O            0.03343198435300       -5.99226596221987        1.21047313318247
O            0.02571493545239       -5.04405616292751        3.46463625828916
H           -9.34620811388071        1.20859890602684       -2.11764592449381
H           -9.93953018887786        0.81364125946851       -3.72584235652166
H           -8.35640244300413        1.55883123601291       -3.54837598454011
H          -10.39227886297456       -1.46711507173817       -3.03075092665065
H           -9.13015067100906       -2.52787042210238       -2.41253711956940
H           -9.73481492312904       -1.20899972095228       -1.41225811829458
H           -8.93350379571987       -0.94936939742069       -5.08294918377032
H           -7.29152133978526       -0.34218790942631       -4.84865915241412
H           -7.68156393206403       -2.01380336457646       -4.44931236792301
H           -6.89821695564882       -2.69333252014586       -2.45063829418778
H           -4.89557495512568       -2.89067406238363       -1.07838760651770
H           -7.13563643719424        1.51284696307996       -1.64874561321297
H           -5.71032733391469        3.29556535743896       -0.26282143356629
H           -4.33005281708652        6.25035164677657        2.96584920980377
H           -5.17784431560903        4.70722870231337        3.10186839443498
H           -3.43567289501134        4.78276798174183        3.35404961350859
H           -2.56118607797662        5.39956291871346       -0.24525245550751
H           -2.78204899973970        6.66974248734774        0.96167345569105
H           -1.88580743474736        5.21081637331521        1.37174045604463
H           -5.19194963118900        6.68017591803548        0.71537302927048
H           -5.09174901413414        5.47877570385481       -0.56617622280886
H           -6.16144228161873        5.21757903050886        0.82516222759400
H           -2.24652507666874        3.20252737587960        2.26314642950821
H           -2.01313090595468        0.79989530135378        1.93527175057974
H           -4.55080881601226       -2.94648510847028        1.32806202937534
H           -3.01976518936943       -4.77096548611302        2.06748804913071
H           -1.17908846886775       -0.56712056708552        0.15086595767163
H            1.18578328941613       -0.55747291777740        0.14514377924958
H            1.99868813537107        0.82958203408602        1.91625011055718
H            2.19865798115049        3.23796883222222        2.22225863547834
H            5.09536189946289        6.74187265134123        0.64151544521856
H            5.01182032223270        5.52563392420253       -0.62726804961065
H            6.08657403965446        5.29510354581269        0.76556770370706
H            4.23929950421994        6.32150811101707        2.89862981876406
H            3.37166126684245        4.84184461294767        3.30178898570098
H            5.11450501514898        4.79495411830782        3.04733285664774
H            2.68778679738861        6.69942360258662        0.88990232978491
H            2.48189011107665        5.41254232256756       -0.30188829833888
H            1.81217433060884        5.23344804572262        1.31857507426713
H            5.66702416128546        3.35452258836261       -0.29639301570098
H            7.12207115085454        1.57823678666157       -1.65898765725744
H            8.96953662266460       -0.89361274894194       -5.06204493423283
H            7.31680754494471       -0.31064026619656       -4.84248313669466
H            7.73191839889977       -1.97127263687629       -4.42293605019273
H            9.75627318016010       -1.09935152402399       -1.38472234642472
H            9.17290132415127       -2.43963794385765       -2.36901841371360
H           10.42357580630058       -1.37088472779737       -2.99702255871225
H            8.34750738142274        1.62163542133969       -3.55861875835693
H            9.94214112197434        0.89757960293582       -3.72063783013682
H            9.33588157623484        1.30199114533810       -2.11971337057222
H            6.94124241287872       -2.63711337284545       -2.42656374186636
H            4.93533128252614       -2.84830951063291       -1.06154989199049
H            4.58229272491584       -2.89409601761727        1.33708378079189
H            3.07094002550776       -4.73507087941707        2.07562285121199
