  127
       -199.29320329
 C        -11.5341780337       -0.5219780982        5.7961536725
 C        -10.6894101348       -1.0542432267        4.9210951765
 C        -10.4210258768       -0.5824705825        3.5680986135
 C         -9.5741038218       -1.3289240922        2.7475140756
 C         -9.2973547052       -0.9320330230        1.4547451647
 C         -9.8510600040        0.2345449462        0.9451769648
 C         -9.5712950142        0.6655754467       -0.4736813360
 O         -8.3584002658        0.1721111847       -0.9980699310
 C         -7.1868312749        0.6265650036       -0.4810680695
 C         -7.0567794630        1.5656577773        0.5324730911
 C         -5.8005920513        1.9616181229        0.9826246074
 C         -4.6324420991        1.4597134375        0.4453689044
 C         -4.7526549111        0.5288852266       -0.5775678465
 C         -6.0135727196        0.0946654012       -1.0310907393
 C         -5.7759303179       -0.8989541348       -2.0395105074
 C         -6.6107375631       -1.6559532376       -2.8505143352
 C         -6.0372510728       -2.5206311035       -3.7621334012
 C         -4.6538721674       -2.6186109580       -3.8863051423
 C         -3.8056316434       -1.8731722001       -3.0888734051
 C         -4.3741369921       -1.0310760497       -2.1467109941
 N         -3.7656279462       -0.1629656526       -1.2571233654
 C         -2.3917570312       -0.0117232015       -1.0820047779
 C         -1.8267358638        1.2650457385       -1.0928941445
 C         -0.4626424297        1.4105079055       -0.9341412358
 N          0.1528188048        2.6723561923       -0.9250899646
 C          0.4982285606        3.3969347245       -2.0535823660
 C         -0.0449631367        3.3435555554       -3.3253608323
 C          0.4799107976        4.1940721271       -4.2820276822
 C          1.5201977705        5.0688706302       -3.9807822684
 C          2.0719230044        5.1159062789       -2.7146062987
 C          1.5618827472        4.2716936142       -1.7385361128
 C          1.8810348206        4.0473803359       -0.3552511327
 C          2.8757483818        4.5336802202        0.5006014922
 O          3.8256288348        5.3493220424       -0.0361937619
 C          5.0939136936        5.3817370419        0.5958480161
 C          5.6141046768        4.0169571339        0.9812224187
 C          6.3792783339        3.8562881275        2.1304658064
 C          6.7658597869        2.5998793887        2.5511095113
 C          6.3775656877        1.4590132254        1.8476344016
 C          6.6750658755        0.1058017167        2.2975096867
 C          7.4647330368       -0.2389591405        3.3071226329
 C          5.6436158984        1.6323078809        0.6734863795
 C          5.2826046338        2.8907241222        0.2372958492
 C          2.8511089948        4.1128629178        1.8248278742
 C          1.9151789035        3.1882528561        2.2729893446
 C          0.9848466607        2.6264693002        1.4225164454
 C          0.9891338253        3.0631173887        0.1068045089
 C          0.3595209614        0.2786076045       -0.7922637933
 C          1.7601589502        0.4429583743       -0.8697530039
 N          2.8859786341        0.5826009294       -1.0426021584
 C         -0.2162954044       -1.0027244714       -0.7160421262
 N          0.5959262009       -2.1085100813       -0.4911160443
 C          0.6196743847       -3.2761211653       -1.2397773519
 C         -0.1937416568       -3.6811655071       -2.2851588861
 C          0.0699701979       -4.9025561038       -2.8783340319
 C          1.1261228683       -5.7026060195       -2.4534278425
 C          1.9588065680       -5.2928678931       -1.4304174137
 C          1.7090274585       -4.0712605583       -0.8209149988
 C          2.3657279675       -3.3469863695        0.2304722008
 C          3.5030480982       -3.6186141764        1.0016463969
 O          4.1652370131       -4.7745971927        0.7244897631
 C          5.4230047289       -4.9957705372        1.3211337475
 C          6.4746795554       -3.9697920364        0.9690751468
 C          6.3132281606       -3.1018354863       -0.1028916608
 C          7.2670479409       -2.1419231504       -0.3788250780
 C          8.4225331336       -2.0382290095        0.3930761028
 C          9.4263093012       -1.0057516445        0.1615646075
 C          9.2029969114        0.1614247422       -0.4280306987
 C          8.6048724664       -2.9531820554        1.4305230399
 C          7.6380484689       -3.8926270083        1.7259849878
 C          3.8628755327       -2.6917064429        1.9700652160
 C          3.1076951775       -1.5407462834        2.1712197031
 C          1.9945782534       -1.2478667740        1.4099111801
 C          1.6506415392       -2.1490233169        0.4116660462
 C         -1.5915800344       -1.1318551920       -0.8687926145
 C        -10.6886560329        0.9909638460        1.7565549280
 C        -10.9726675512        0.5884148000        3.0452502872
 H        -12.1284582631        0.3490098258        5.5796220199
 H        -11.6667883617       -0.9491225925        6.7752353516
 H        -10.1309325332       -1.9383693816        5.2049179456
 H         -9.1315379851       -2.2380693474        3.1296771837
 H         -8.6441735986       -1.5269506503        0.8329160039
 H        -10.3387943267        0.2496694694       -1.1380385800
 H         -9.6105219438        1.7610371596       -0.5555454974
 H         -7.9286315571        1.9900346012        1.0030020256
 H         -5.7448311660        2.6848698726        1.7822907443
 H         -3.6701326169        1.7697478264        0.8202679550
 H         -7.6806384414       -1.5546676977       -2.7654130949
 H         -6.6668885949       -3.1211728207       -4.4012211008
 H         -4.2331285135       -3.2854021548       -4.6243341569
 H         -2.7358518577       -1.9313019408       -3.2148670508
 H         -2.4473841337        2.1343218999       -1.2391168610
 H         -0.8486528491        2.6618872770       -3.5629289498
 H          0.0738765767        4.1780369514       -5.2826834279
 H          1.9009643142        5.7184657610       -4.7547933167
 H          2.8815731321        5.7870699422       -2.4765687505
 H          5.0648012130        6.0335899801        1.4809183594
 H          5.7514955609        5.8502453460       -0.1459807047
 H          6.6583235324        4.7249400932        2.7116253438
 H          7.3444392506        2.5042356476        3.4567320487
 H          6.1817518893       -0.6702653230        1.7275908589
 H          7.9991324492        0.4796492232        3.9049929167
 H          7.6171641879       -1.2725037018        3.5661354540
 H          5.3269487912        0.7684567799        0.1091741568
 H          4.7047820041        2.9915263425       -0.6685173071
 H          3.5799680526        4.4855117747        2.5253914564
 H          1.9380629589        2.8887668508        3.3101598942
 H          0.2815014019        1.8831024755        1.7671451790
 H         -1.0044760499       -3.0677879906       -2.6419794514
 H         -0.5580049828       -5.2388999571       -3.6900202457
 H          1.2983365294       -6.6513541678       -2.9390374899
 H          2.7906121737       -5.8956861912       -1.1039664924
 H          5.7284996487       -5.9800279834        0.9461667598
 H          5.3249144852       -5.0689738295        2.4143695151
 H          5.4295225773       -3.1680357023       -0.7194308477
 H          7.1164736913       -1.4701722091       -1.2092411703
 H         10.4124072825       -1.2282242473        0.5504535722
 H          8.2306407904        0.4458496150       -0.7916731195
 H          9.9868187259        0.8886858475       -0.5521134677
 H          9.5050275134       -2.9054952586        2.0268034991
 H          7.7826088047       -4.5756092457        2.5519107169
 H          4.7371393671       -2.8452170057        2.5811923144
 H          3.4152744229       -0.8497573746        2.9413750241
 H          1.4329258884       -0.3464472622        1.5921133322
 H         -2.0491592428       -2.1049763236       -0.7886996698
 H        -11.1227993249        1.9031662058        1.3708554853
 H        -11.6246208015        1.1958299200        3.6534674607
