  99
       -160.50405533
 C         -7.5451142268       -0.0460686672       -0.0769757947
 C         -6.8620211224        0.9288779893        0.6394047173
 C         -5.4862137707        0.9322522691        0.6767016311
 C         -4.7513715046       -0.0491819818       -0.0090650208
 C         -3.3234967192       -0.0458733674        0.0163202763
 N         -2.6703705628        0.9922844946        0.5939683701
 C         -1.3711412261        0.9649936263        0.5494307480
 N         -0.6486286307        2.0504409200        1.0163268077
 C         -1.0637306958        3.3715429486        0.8671596927
 C         -2.3418940810        3.8765407875        0.7145035002
 C         -2.4800836143        5.2480382295        0.5738930075
 C         -1.3727614215        6.0913844790        0.5737582516
 C         -0.0920866216        5.5874728200        0.7071314853
 C          0.0693165508        4.2160249876        0.8550708413
 C          1.2227813986        3.3709570634        0.9966407493
 C          2.5864267968        3.6469032163        0.9432111803
 C          3.4915230336        2.6103577131        1.0581891371
 C          3.0258928518        1.3255581373        1.3259699274
 C          3.7203483792        0.1031375988        1.6022610145
 C          5.0659886749       -0.2363355028        1.6027483410
 C          5.4224030156       -1.5228513624        1.9578965459
 C          4.4576487887       -2.4486751582        2.3444498549
 C          3.1117638493       -2.1273640829        2.3613964365
 C          2.7396442170       -0.8554375464        1.9516814345
 N          1.4865749335       -0.2706019834        1.8689149263
 C          0.2875634916       -0.8349316498        2.3144789227
 C         -0.5963544689       -0.0655164538        3.0775317044
 C         -1.8050221790       -0.5944227590        3.4834463849
 C         -2.1427055851       -1.8993701005        3.1621675044
 C         -1.2435594621       -2.6850306808        2.4570570833
 C         -0.0333931052       -2.1649795998        2.0429381951
 C          1.6409669825        1.0343590998        1.4554055857
 C          0.7295488332        2.0467361043        1.1560252632
 N         -0.6149833943       -0.0176357413        0.0230840555
 C         -1.3486803027       -1.0184592964       -0.5007164913
 N         -0.5998884983       -2.0841063893       -0.9722767067
 C         -0.9666466044       -3.4168549456       -0.8079339805
 C         -2.2234309014       -3.9620831639       -0.6207221012
 C         -2.3124129383       -5.3367058446       -0.4706588872
 C         -1.1778645579       -6.1427870489       -0.4950258887
 C          0.0818279077       -5.5980917116       -0.6639501733
 C          0.1943760467       -4.2228699544       -0.8221259613
 C          1.3146490643       -3.3400056369       -0.9972084336
 C          2.6882752012       -3.5670851449       -0.9802013273
 C          3.5529828417       -2.4996314070       -1.1231032238
 C          3.0361561480       -1.2324169918       -1.3810164424
 C          3.6785073239        0.0138712308       -1.6766121842
 C          5.0101806659        0.4027518211       -1.7124400300
 C          5.3096047313        1.7012594515       -2.0769305553
 C          4.3019482677        2.5909672680       -2.4378771149
 C          2.9687597960        2.2203322995       -2.4196611435
 C          2.6547896697        0.9359276897       -2.0007062038
 N          1.4264161653        0.3062672339       -1.8854427110
 C          0.1953966564        0.8254140195       -2.2972831484
 C         -0.6801055350        0.0219053177       -3.0348027613
 C         -1.9223563628        0.5009208207       -3.3993943000
 C         -2.3037086328        1.7893192024       -3.0612513088
 C         -1.4141802067        2.6109652401       -2.3850247884
 C         -0.1702734761        2.1412725831       -2.0129926388
 C          1.6387886407       -0.9910518709       -1.4739083085
 C          0.7722579723       -2.0338884851       -1.1473975173
 N         -2.6466329273       -1.0757135949       -0.5480755481
 C         -5.4542512712       -1.0306265884       -0.7278563512
 C         -6.8301601842       -1.0238118279       -0.7577736879
 H         -8.6247647818       -0.0441423747       -0.1043542082
 H         -7.4165301485        1.6888839749        1.1722416374
 H         -4.9492219811        1.6789157350        1.2405818339
 H         -3.1908586916        3.2139793354        0.6968592365
 H         -3.4672819311        5.6697254837        0.4590653646
 H         -1.5184762124        7.1555940688        0.4616294415
 H          0.7658936229        6.2425019979        0.6997144332
 H          2.9231548334        4.6604120482        0.7907437004
 H          4.5516144408        2.7899450030        0.9757400596
 H          5.8116444168        0.4945664788        1.3304620835
 H          6.4626629023       -1.8127301338        1.9553746781
 H          4.7646648852       -3.4384874929        2.6469701625
 H          2.3883981315       -2.8508146825        2.7009936803
 H         -0.3256696533        0.9428116141        3.3532182620
 H         -2.4895635468        0.0177193205        4.0512017961
 H         -3.0971858750       -2.3033149019        3.4621821575
 H         -1.4926678839       -3.7066347822        2.2105295411
 H          0.6419969212       -2.7700127384        1.4605432963
 H         -3.0931343429       -3.3273338221       -0.5850220127
 H         -3.2816953509       -5.7903819911       -0.3285273580
 H         -1.2854117943       -7.2106869593       -0.3750114949
 H          0.9605934494       -6.2249054809       -0.6759366951
 H          3.0650686375       -4.5675215006       -0.8350231172
 H          4.6204792689       -2.6419787758       -1.0685212061
 H          5.7893062680       -0.2998647412       -1.4600789745
 H          6.3383060584        2.0287605067       -2.1022811404
 H          4.5643544754        3.5912364955       -2.7478631819
 H          2.2102310307        2.9163943937       -2.7391403913
 H         -0.3770979788       -0.9739511286       -3.3220488055
 H         -2.5994754455       -0.1382750293       -3.9457178865
 H         -3.2848412383        2.1525846338       -3.3249385153
 H         -1.6976182571        3.6206618991       -2.1269504901
 H          0.4983615424        2.7727556690       -1.4510747233
 H         -4.8914657953       -1.7791356757       -1.2632958922
 H         -7.3600509373       -1.7823872636       -1.3169991392
