  99
  -160.504055330000       0.341197197847829      !
 C         -7.5451142268       -0.0460686672       -0.0769757947
 C         -6.8620211224        0.9288779893        0.6394047173
 C         -5.4862137707        0.9322522691        0.6767016311
 C         -4.7513715046       -0.0491819818       -0.0090650208
 C         -3.3234967192       -0.0458733674        0.0163202763
 N         -2.6703705628        0.9922844946        0.5939683701
 C         -1.3711412261        0.9649936263        0.5494307480
 N         -0.6486286307        2.0504409200        1.0163268077
 C         -1.0637306958        3.3715429486        0.8671596927
 C         -2.3418940810        3.8765407875        0.7145035002
 C         -2.4800836143        5.2480382295        0.5738930075
 C         -1.3727614215        6.0913844790        0.5737582516
 C         -0.0920866216        5.5874728200        0.7071314853
 C          0.0693165508        4.2160249876        0.8550708413
 C          1.2227813986        3.3709570634        0.9966407493
 C          2.5864267968        3.6469032163        0.9432111803
 C          3.4915230336        2.6103577131        1.0581891371
 C          3.0258928518        1.3255581373        1.3259699274
 C          3.7203483792        0.1031375988        1.6022610145
 C          5.0659886749       -0.2363355028        1.6027483410
 C          5.4224030156       -1.5228513624        1.9578965459
 C          4.4576487887       -2.4486751582        2.3444498549
 C          3.1117638493       -2.1273640829        2.3613964365
 C          2.7396442170       -0.8554375464        1.9516814345
 N          1.4865749335       -0.2706019834        1.8689149263
 C          0.2875634916       -0.8349316498        2.3144789227
 C         -0.5963544689       -0.0655164538        3.0775317044
 C         -1.8050221790       -0.5944227590        3.4834463849
 C         -2.1427055851       -1.8993701005        3.1621675044
 C         -1.2435594621       -2.6850306808        2.4570570833
 C         -0.0333931052       -2.1649795998        2.0429381951
 C          1.6409669825        1.0343590998        1.4554055857
 C          0.7295488332        2.0467361043        1.1560252632
 N         -0.6149833943       -0.0176357413        0.0230840555
 C         -1.3486803027       -1.0184592964       -0.5007164913
 N         -0.5998884983       -2.0841063893       -0.9722767067
 C         -0.9666466044       -3.4168549456       -0.8079339805
 C         -2.2234309014       -3.9620831639       -0.6207221012
 C         -2.3124129383       -5.3367058446       -0.4706588872
 C         -1.1778645579       -6.1427870489       -0.4950258887
 C          0.0818279077       -5.5980917116       -0.6639501733
 C          0.1943760467       -4.2228699544       -0.8221259613
 C          1.3146490643       -3.3400056369       -0.9972084336
 C          2.6882752012       -3.5670851449       -0.9802013273
 C          3.5529828417       -2.4996314070       -1.1231032238
 C          3.0361561480       -1.2324169918       -1.3810164424
 C          3.6785073239        0.0138712308       -1.6766121842
 C          5.0101806659        0.4027518211       -1.7124400300
 C          5.3096047313        1.7012594515       -2.0769305553
 C          4.3019482677        2.5909672680       -2.4378771149
 C          2.9687597960        2.2203322995       -2.4196611435
 C          2.6547896697        0.9359276897       -2.0007062038
 N          1.4264161653        0.3062672339       -1.8854427110
 C          0.1953966564        0.8254140195       -2.2972831484
 C         -0.6801055350        0.0219053177       -3.0348027613
 C         -1.9223563628        0.5009208207       -3.3993943000
 C         -2.3037086328        1.7893192024       -3.0612513088
 C         -1.4141802067        2.6109652401       -2.3850247884
 C         -0.1702734761        2.1412725831       -2.0129926388
 C          1.6387886407       -0.9910518709       -1.4739083085
 C          0.7722579723       -2.0338884851       -1.1473975173
 N         -2.6466329273       -1.0757135949       -0.5480755481
 C         -5.4542512712       -1.0306265884       -0.7278563512
 C         -6.8301601842       -1.0238118279       -0.7577736879
 H         -8.6247647818       -0.0441423747       -0.1043542082
 H         -7.4165301485        1.6888839749        1.1722416374
 H         -4.9492219811        1.6789157350        1.2405818339
 H         -3.1908586916        3.2139793354        0.6968592365
 H         -3.4672819311        5.6697254837        0.4590653646
 H         -1.5184762124        7.1555940688        0.4616294415
 H          0.7658936229        6.2425019979        0.6997144332
 H          2.9231548334        4.6604120482        0.7907437004
 H          4.5516144408        2.7899450030        0.9757400596
 H          5.8116444168        0.4945664788        1.3304620835
 H          6.4626629023       -1.8127301338        1.9553746781
 H          4.7646648852       -3.4384874929        2.6469701625
 H          2.3883981315       -2.8508146825        2.7009936803
 H         -0.3256696533        0.9428116141        3.3532182620
 H         -2.4895635468        0.0177193205        4.0512017961
 H         -3.0971858750       -2.3033149019        3.4621821575
 H         -1.4926678839       -3.7066347822        2.2105295411
 H          0.6419969212       -2.7700127384        1.4605432963
 H         -3.0931343429       -3.3273338221       -0.5850220127
 H         -3.2816953509       -5.7903819911       -0.3285273580
 H         -1.2854117943       -7.2106869593       -0.3750114949
 H          0.9605934494       -6.2249054809       -0.6759366951
 H          3.0650686375       -4.5675215006       -0.8350231172
 H          4.6204792689       -2.6419787758       -1.0685212061
 H          5.7893062680       -0.2998647412       -1.4600789745
 H          6.3383060584        2.0287605067       -2.1022811404
 H          4.5643544754        3.5912364955       -2.7478631819
 H          2.2102310307        2.9163943937       -2.7391403913
 H         -0.3770979788       -0.9739511286       -3.3220488055
 H         -2.5994754455       -0.1382750293       -3.9457178865
 H         -3.2848412383        2.1525846338       -3.3249385153
 H         -1.6976182571        3.6206618991       -2.1269504901
 H          0.4983615424        2.7727556690       -1.4510747233
 H         -4.8914657953       -1.7791356757       -1.2632958922
 H         -7.3600509373       -1.7823872636       -1.3169991392
  99
  -160.503907670000       0.291840538665677      !
 C         -7.5328439329        0.0367221596       -0.3234965018
 C         -6.8735019313        1.0006924211        0.4290884472
 C         -5.5023468731        0.9770778449        0.5473512748
 C         -4.7482733400       -0.0210380345       -0.0915520413
 C         -3.3232673243       -0.0405947093        0.0011088967
 N         -2.6763270276        0.9909889876        0.5992281646
 C         -1.3764009703        0.9577376308        0.5777429058
 N         -0.6555553520        2.0393878718        1.0559837133
 C         -1.0732168818        3.3619291435        0.9223602679
 C         -2.3536724186        3.8682883226        0.7966969953
 C         -2.4946872441        5.2410576507        0.6713326932
 C         -1.3878567830        6.0848428525        0.6590538534
 C         -0.1051060663        5.5799764511        0.7662128923
 C          0.0587628099        4.2073808628        0.8995125635
 C          1.2149848877        3.3622118551        1.0168994069
 C          2.5773216818        3.6393766052        0.9399931350
 C          3.4847814727        2.6027205510        1.0322894754
 C          3.0244927052        1.3167799620        1.3038005660
 C          3.7241255882        0.0934122189        1.5624113913
 C          5.0695364569       -0.2456230334        1.5343447082
 C          5.4334638690       -1.5331656223        1.8780560590
 C          4.4767598904       -2.4602039760        2.2814070576
 C          3.1313631473       -2.1392429805        2.3268249420
 C          2.7504215494       -0.8661240421        1.9288290335
 N          1.4960960420       -0.2809234143        1.8725069146
 C          0.3050801862       -0.8431348754        2.3414130211
 C         -0.5647542203       -0.0700108388        3.1165860831
 C         -1.7654441837       -0.5966152427        3.5480258231
 C         -2.1083319294       -1.9038802550        3.2415670524
 C         -1.2225509530       -2.6928747858        2.5238158359
 C         -0.0210209657       -2.1744823391        2.0830676090
 C          1.6425324512        1.0247895292        1.4580003206
 C          0.7253193051        2.0372457122        1.1774721998
 N         -0.6158049371       -0.0252476707        0.0591566179
 C         -1.3444293050       -1.0269280731       -0.4700793642
 N         -0.5914976528       -2.0948430115       -0.9296376790
 C         -0.9503520258       -3.4270314595       -0.7499330692
 C         -2.2018119933       -3.9750466287       -0.5361158257
 C         -2.2822960622       -5.3484717558       -0.3708955226
 C         -1.1447459616       -6.1501624453       -0.4069655558
 C          0.1097106464       -5.6023950663       -0.6028571262
 C          0.2140233730       -4.2282179329       -0.7760519036
 C          1.3271714028       -3.3419412800       -0.9764693181
 C          2.7015948875       -3.5641816252       -0.9857555260
 C          3.5593563980       -2.4947276451       -1.1533805366
 C          3.0330731745       -1.2303830349       -1.4058567434
 C          3.6658765625        0.0162260119       -1.7197699614
 C          4.9955572258        0.4076356989       -1.7885373033
 C          5.2836481730        1.7051575358       -2.1656475199
 C          4.2658843765        2.5920826433       -2.5045365173
 C          2.9341963354        2.2189612313       -2.4529992106
 C          2.6331679528        0.9350431384       -2.0233652904
 N          1.4089335840        0.3026524484       -1.8801184532
 C          0.1702415542        0.8201825522       -2.2706439964
 C         -0.7161449266        0.0166471988       -2.9954304294
 C         -1.9638974814        0.4958201649       -3.3409560479
 C         -2.3415891467        1.7828294599       -2.9935315973
 C         -1.4427247809        2.6040286090       -2.3286099022
 C         -0.1923585860        2.1352092046       -1.9779175746
 C          1.6331260778       -0.9932069103       -1.4703925925
 C          0.7769618290       -2.0384675857       -1.1242378175
 N         -2.6413766567       -1.0802812338       -0.5372702678
 C         -5.4277563992       -0.9933610717       -0.8448797685
 C         -6.7990037277       -0.9591949981       -0.9563756488
 H         -8.6086600945        0.0609234524       -0.4155338375
 H         -7.4431444754        1.7739606807        0.9256729085
 H         -4.9851373318        1.7167772921        1.1381480378
 H         -3.2024141649        3.2056289762        0.7872058342
 H         -3.4838786595        5.6634128658        0.5775562863
 H         -1.5356045171        7.1499527303        0.5589727963
 H          0.7526578381        6.2350640799        0.7500389048
 H          2.9106089831        4.6539857910        0.7872616759
 H          4.5429578327        2.7826974097        0.9289907176
 H          5.8093079080        0.4865545347        1.2495785475
 H          6.4736153714       -1.8226113527        1.8540052335
 H          4.7897677082       -3.4512458800        2.5737902870
 H          2.4157729598       -2.8643739942        2.6790039595
 H         -0.2893399653        0.9396433835        3.3823246101
 H         -2.4387411059        0.0185627186        4.1259007364
 H         -3.0561388596       -2.3068585763        3.5632192783
 H         -1.4749290900       -3.7164500857        2.2889666792
 H          0.6428046681       -2.7830848366        1.4913198992
 H         -3.0737155919       -3.3434384988       -0.4931808271
 H         -3.2469593715       -5.8049042160       -0.2075535863
 H         -1.2457798430       -7.2171789646       -0.2741859621
 H          0.9907259984       -6.2258523452       -0.6232492747
 H          3.0848583344       -4.5624264293       -0.8425300313
 H          4.6282481270       -2.6335086150       -1.1224263597
 H          5.7819677018       -0.2925219429       -1.5523348001
 H          6.3108737128        2.0342442423       -2.2176434347
 H          4.5188274225        3.5916482112       -2.8245379314
 H          2.1667077258        2.9120598064       -2.7573490452
 H         -0.4166648688       -0.9786299002       -3.2884846427
 H         -2.6494801356       -0.1433698383       -3.8765926144
 H         -3.3271065903        2.1454595479       -3.2410892574
 H         -1.7235037111        3.6128037727       -2.0638184844
 H          0.4840547653        2.7657633328       -1.4241105992
 H         -4.8489242104       -1.7544386636       -1.3448172765
 H         -7.3101349607       -1.7106392461       -1.5421357703
  99
  -160.503720310000       0.239354129138843      !
 C         -7.5590664563       -0.0855243992       -0.1707222267
 C         -6.8998506093        0.8737617764        0.5879406996
 C         -5.5246957645        0.8923003295        0.6491058435
 C         -4.7670904446       -0.0585873497       -0.0539925620
 C         -3.3391741694       -0.0458705189       -0.0039558751
 N         -2.6966266195        0.9853070349        0.5958027794
 C         -1.3960803357        0.9675322122        0.5589085086
 N         -0.6950244509        2.0604954679        1.0387778807
 C         -1.1466122354        3.3735995684        0.9199443763
 C         -2.4380341892        3.8491124056        0.7846476750
 C         -2.6131347495        5.2193464797        0.6766719382
 C         -1.5288307346        6.0916509476        0.6917204689
 C         -0.2350132568        5.6182892694        0.8086062366
 C         -0.0372079141        4.2484042383        0.9239777149
 C          1.1389845061        3.4323907746        1.0427550154
 C          2.4941067546        3.7458489076        0.9796742831
 C          3.4272220916        2.7307663751        1.0565548141
 C          2.9984193328        1.4288063318        1.3035801225
 C          3.7282631177        0.2202283722        1.5452496237
 C          5.0823949413       -0.0819161351        1.5163392476
 C          5.4795333029       -1.3643801982        1.8406504802
 C          4.5465038122       -2.3228004194        2.2259984948
 C          3.1929931756       -2.0385702628        2.2726950471
 C          2.7786559807       -0.7701835973        1.8931987771
 N          1.5094005925       -0.2167186192        1.8421980687
 C          0.3309682332       -0.8119123655        2.3013508655
 C         -0.5616434928       -0.0653328520        3.0775457478
 C         -1.7542683915       -0.6212736551        3.4936845070
 C         -2.0657610049       -1.9331315826        3.1738904644
 C         -1.1549390773       -2.6975900308        2.4607403263
 C          0.0382946023       -2.1494465101        2.0340677729
 C          1.6239578352        1.0989363758        1.4477785130
 C          0.6826139961        2.0915826208        1.1768558950
 N         -0.6270440652       -0.0080926915        0.0354109444
 C         -1.3532273391       -1.0113178318       -0.4971216930
 N         -0.6134379765       -2.0902517469       -0.9504774555
 C         -1.0171744674       -3.4130226229       -0.7852870336
 C         -2.2857350239       -3.9255478114       -0.5820673292
 C         -2.4100001414       -5.2969575795       -0.4292343785
 C         -1.2985384860       -6.1340626868       -0.4671544638
 C         -0.0272887904       -5.6231084930       -0.6524583432
 C          0.1198579248       -4.2511597483       -0.8125314494
 C          1.2619323563       -3.4004226677       -0.9977111750
 C          2.6265857407       -3.6747306535       -0.9995941716
 C          3.5242178921       -2.6364801292       -1.1496345281
 C          3.0447794871       -1.3517898903       -1.3921036114
 C          3.7292065912       -0.1308150319       -1.6953033954
 C          5.0749237711        0.2018218054       -1.7624708578
 C          5.4195344301        1.4860122505       -2.1364564986
 C          4.4408372712        2.4165191103       -2.4740318490
 C          3.0941515608        2.1019325853       -2.4229945589
 C          2.7365262518        0.8314740746       -1.9958910813
 N          1.4861009447        0.2491915276       -1.8596033578
 C          0.2734585151        0.8247444472       -2.2496550531
 C         -0.6472962232        0.0703664877       -2.9845363326
 C         -1.8676451995        0.6134963320       -3.3334879047
 C         -2.1808461851        1.9172680919       -2.9843570293
 C         -1.2454262955        2.6894339338       -2.3113753947
 C         -0.0234803680        2.1554881392       -1.9538231765
 C          1.6552834837       -1.0594925955       -1.4622131151
 C          0.7576038560       -2.0763245223       -1.1355082545
 N         -2.6506952039       -1.0660491681       -0.5669083191
 C         -5.4458680115       -1.0243581771       -0.8160453288
 C         -6.8210706611       -1.0323813914       -0.8703330212
 H         -8.6381169502       -0.0953562599       -0.2163862849
 H         -7.4726552491        1.6095909723        1.1351119847
 H         -5.0070550731        1.6266386230        1.2463214553
 H         -3.2698513483        3.1660285912        0.7541190987
 H         -3.6118624298        5.6167648244        0.5757430026
 H         -1.7031379890        7.1539762388        0.6059212257
 H          0.6054092882        6.2956944031        0.8144776304
 H          2.8016507325        4.7714640326        0.8472672110
 H          4.4810037169        2.9389236416        0.9611154220
 H          5.8028673180        0.6737527057        1.2438358678
 H          6.5270601152       -1.6254843699        1.8147357314
 H          4.8849989019       -3.3095052919        2.5041003421
 H          2.4968709534       -2.7883410976        2.6116047032
 H         -0.3108512529        0.9476650267        3.3545370913
 H         -2.4464029820       -0.0253574529        4.0694746211
 H         -3.0078649929       -2.3589557788        3.4822519620
 H         -1.3813196711       -3.7257223273        2.2194133772
 H          0.7212335978       -2.7399087229        1.4459469704
 H         -3.1390151892       -3.2697872272       -0.5357387909
 H         -3.3897053801       -5.7232321960       -0.2741204002
 H         -1.4336519640       -7.1985086134       -0.3445682485
 H          0.8343504522       -6.2729941076       -0.6747455838
 H          2.9698711631       -4.6886314307       -0.8651279369
 H          4.5872428816       -2.8135709551       -1.1136135852
 H          5.8296936795       -0.5327694813       -1.5278571453
 H          6.4601482689        1.7700085468       -2.1876053077
 H          4.7371198427        3.4046088213       -2.7923869767
 H          2.3585093480        2.8288596341       -2.7266819173
 H         -0.3966533468       -0.9370208235       -3.2817311165
 H         -2.5815479601        0.0125675035       -3.8764708284
 H         -3.1447404943        2.3311179614       -3.2369509026
 H         -1.4757463608        3.7108064726       -2.0461655574
 H          0.6801027886        2.7475773991       -1.3918056487
 H         -4.8651982074       -1.7481042277       -1.3666663776
 H         -7.3317350043       -1.7789276664       -1.4627006423
  99
  -160.502699090000       8.123079557548417E-002 !
 C         -7.4922150719       -0.1337457726        0.0475125478
 C         -6.8082193772        0.8999179833        0.6759020313
 C         -5.4325899950        0.9323540337        0.6691625237
 C         -4.6980088824       -0.0791511865        0.0270164942
 C         -3.2723864776       -0.0524438195        0.0174209594
 N         -2.6237981433        1.0088855247        0.5661205007
 C         -1.3265936870        0.9751087084        0.5311322397
 N         -0.5706968050        2.0345841130        1.0130341207
 C         -0.8857787172        3.3740435190        0.8107546519
 C         -2.1246402775        3.9585687658        0.6250618563
 C         -2.1637430402        5.3299427729        0.4294314674
 C         -0.9985783951        6.0914278025        0.4080033235
 C          0.2430717072        5.5058873747        0.5771232844
 C          0.3070732685        4.1340211103        0.7809884911
 C          1.3956118027        3.2129923052        0.9687365040
 C          2.7783277972        3.3771985306        0.9301353588
 C          3.5972722158        2.2772756224        1.0970975511
 C          3.0314300266        1.0406924630        1.3976143823
 C          3.6162752532       -0.2309571702        1.7097069068
 C          4.9252779399       -0.6917236328        1.7261632712
 C          5.1623875172       -1.9978763293        2.1106832091
 C          4.1170064386       -2.8263822978        2.5074782380
 C          2.8053307846       -2.3853263857        2.5069194506
 C          2.5532111775       -1.0929091220        2.0717656991
 N          1.3573691667       -0.4043096730        1.9650611498
 C          0.1036246484       -0.8530241077        2.3927067770
 C         -0.7235925578        0.0068475794        3.1207044936
 C         -1.9915611702       -0.3956171919        3.4896122881
 C         -2.4477957301       -1.6619484556        3.1612111244
 C         -1.6080090279       -2.5394080528        2.4921563029
 C         -0.3385570473       -2.1463769816        2.1169800957
 C          1.6265181968        0.8688762055        1.5169245463
 C          0.8031975339        1.9391320498        1.1694397819
 N         -0.5738460668       -0.0047002248        0.0004466212
 C         -1.2979209517       -1.0119904460       -0.5187891540
 N         -0.5125964996       -2.0483415465       -1.0036873162
 C         -0.7852428660       -3.3957475094       -0.7913746892
 C         -2.0032354206       -4.0159836493       -0.5842992007
 C         -1.9983134656       -5.3864218432       -0.3786664599
 C         -0.8106956722       -6.1126659107       -0.3687914800
 C          0.4101410731       -5.4915022451       -0.5602126667
 C          0.4298830574       -4.1197463329       -0.7740401115
 C          1.4875577102       -3.1681614508       -0.9819988215
 C          2.8745181915       -3.2950872033       -0.9667271962
 C          3.6601634647       -2.1743761826       -1.1527153863
 C          3.0551728905       -0.9546592644       -1.4452352842
 C          3.6015285807        0.3305244120       -1.7704323589
 C          4.8980598366        0.8237746649       -1.8136354231
 C          5.0948639659        2.1339588707       -2.2069349963
 C          4.0215064902        2.9344306725       -2.5861956813
 C          2.7215264857        2.4607379768       -2.5584520325
 C          2.5103750846        1.1641482185       -2.1140471376
 N          1.3345499196        0.4454954308       -1.9833590605
 C          0.0635564629        0.8656375465       -2.3879675897
 C         -0.7569091981       -0.0107548625       -3.1040752833
 C         -2.0377794014        0.3668985923       -3.4546060136
 C         -2.5143883999        1.6237329064       -3.1186498324
 C         -1.6834496960        2.5169582174       -2.4590961230
 C         -0.4009123578        2.1493445595       -2.1033068203
 C          1.6439565151       -0.8199984390       -1.5393670185
 C          0.8557322223       -1.9122162888       -1.1780536505
 N         -2.5935389860       -1.0905221389       -0.5380037135
 C         -5.4020313525       -1.1184454313       -0.6050697822
 C         -6.7777791029       -1.1399204683       -0.5914995453
 H         -8.5719814922       -0.1555868777        0.0566378814
 H         -7.3627272472        1.6832584839        1.1738463849
 H         -4.8927048617        1.7261861840        1.1613766717
 H         -3.0168201057        3.3540006921        0.6265320051
 H         -3.1167060361        5.8168405271        0.2864658439
 H         -1.0672924590        7.1577372458        0.2513077407
 H          1.1449363076        6.0986469820        0.5534468834
 H          3.1989221505        4.3535980296        0.7472210807
 H          4.6690631782        2.3733864972        1.0262286365
 H          5.7364337279       -0.0380526432        1.4444327652
 H          6.1722083057       -2.3804477753        2.1205766509
 H          4.3319194374       -3.8339506367        2.8303699945
 H          2.0154571652       -3.0336949804        2.8508133531
 H         -0.3636904679        0.9872397876        3.3957058699
 H         -2.6298046159        0.2865980822        4.0305158700
 H         -3.4496509742       -1.9635312213        3.4245118382
 H         -1.9502676296       -3.5315136541        2.2376583907
 H          0.2916369886       -2.8210998553        1.5605528697
 H         -2.9131887164       -3.4386249194       -0.5761364951
 H         -2.9340916820       -5.9003742220       -0.2180898799
 H         -0.8450935993       -7.1792363164       -0.2029561852
 H          1.3297104556       -6.0567039314       -0.5458631859
 H          3.3241721838       -4.2592944719       -0.7884240967
 H          4.7352994937       -2.2409311291       -1.1017937510
 H          5.7307485198        0.1915433760       -1.5461678794
 H          6.0945458713        2.5410493260       -2.2394443532
 H          4.2048741111        3.9454515376       -2.9175835743
 H          1.9092783220        3.0875339352       -2.8899654040
 H         -0.3808921039       -0.9830309291       -3.3861666869
 H         -2.6698639229       -0.3271509248       -3.9876848316
 H         -3.5248372440        1.9064716413       -3.3699254245
 H         -2.0414091214        3.5024238864       -2.2002741745
 H          0.2236636200        2.8352386629       -1.5541751486
 H         -4.8390201577       -1.8907354922       -1.1055844276
 H         -7.3084167763       -1.9463167195       -1.0785851608
  99
  -160.502169430000       4.637733877216622E-002 !
 C         -7.4794152983       -0.1138530574        0.1166030307
 C         -6.7826831136        0.9128607930        0.7425810922
 C         -5.4073442218        0.9409320972        0.7151697998
 C         -4.6858213172       -0.0683370342        0.0544123803
 C         -3.2607528144       -0.0456156798        0.0265207598
 N         -2.6051082684        1.0149842468        0.5680503440
 C         -1.3086191729        0.9743482006        0.5293856683
 N         -0.5407995316        2.0288933469        1.0045756986
 C         -0.8352613721        3.3694800020        0.7810774958
 C         -2.0646608582        3.9681322429        0.5776194657
 C         -2.0823921223        5.3361699842        0.3570044022
 C         -0.9060205567        6.0802823578        0.3296789574
 C          0.3259573841        5.4804313358        0.5184262681
 C          0.3688962144        4.1115328646        0.7466950572
 C          1.4423993223        3.1781223743        0.9561795293
 C          2.8273559521        3.3247763744        0.9316612532
 C          3.6303635080        2.2174338890        1.1241212067
 C          3.0455385813        0.9912061429        1.4302360386
 C          3.6118610313       -0.2835842933        1.7624329162
 C          4.9152513589       -0.7587747062        1.8038876568
 C          5.1319059736       -2.0629509456        2.2069092877
 C          4.0715414570       -2.8756279199        2.5964821666
 C          2.7648659158       -2.4204599996        2.5698029942
 C          2.5342953314       -1.1302073144        2.1169440754
 N          1.3478378031       -0.4292091417        1.9871930961
 C          0.0841874043       -0.8668246066        2.3967439200
 C         -0.7462946520       -0.0013143406        3.1143351558
 C         -2.0216065304       -0.3958016591        3.4666956519
 C         -2.4825796971       -1.6582662979        3.1300606907
 C         -1.6408514941       -2.5406802398        2.4694895064
 C         -0.3636236945       -2.1564096065        2.1122621416
 C          1.6368638320        0.8371573399        1.5331553002
 C          0.8308573838        1.9152224461        1.1686543231
 N         -0.5642409355       -0.0109573560       -0.0021348493
 C         -1.2942244009       -1.0113044145       -0.5250123399
 N         -0.5078845397       -2.0418574647       -1.0227245164
 C         -0.7616882281       -3.3922663619       -0.8083889416
 C         -1.9723613306       -4.0283611464       -0.6070850924
 C         -1.9498351630       -5.3986544830       -0.4013028373
 C         -0.7524037573       -6.1085343368       -0.3857486015
 C          0.4611479359       -5.4710506402       -0.5710834181
 C          0.4637206969       -4.0992835483       -0.7849375771
 C          1.5094197916       -3.1328522487       -0.9897243509
 C          2.8986285006       -3.2336263647       -0.9622836615
 C          3.6654439417       -2.0987907902       -1.1436887354
 C          3.0422308752       -0.8907596921       -1.4472674190
 C          3.5644083598        0.4055408646       -1.7699789294
 C          4.8498638476        0.9278101446       -1.7993715731
 C          5.0216383996        2.2424428394       -2.1898291457
 C          3.9350167306        3.0195874508       -2.5794793937
 C          2.6457231630        2.5171295378       -2.5660355346
 C          2.4590470418        1.2154901909       -2.1256479208
 N          1.2978970752        0.4721364879       -2.0064362103
 C          0.0196630132        0.8593055145       -2.4224370229
 C         -0.7723914549       -0.0413565322       -3.1396180022
 C         -2.0624093136        0.2980729382       -3.4955395455
 C         -2.5767806251        1.5408668078       -3.1629153143
 C         -1.7742125690        2.4589134823       -2.5029600010
 C         -0.4826199779        2.1293158196       -2.1420639899
 C          1.6301427507       -0.7845405504       -1.5550342800
 C          0.8594962311       -1.8887148422       -1.1937458734
 N         -2.5897453468       -1.0858714648       -0.5378716281
 C         -5.4024669992       -1.1007255317       -0.5748002020
 C         -6.7779892873       -1.1174129867       -0.5409041583
 H         -8.5590148597       -0.1315878626        0.1408822463
 H         -7.3269231198        1.6931297551        1.2563902258
 H         -4.8569983371        1.7280665710        1.2067126906
 H         -2.9656145227        3.3764718655        0.5845743998
 H         -3.0271430980        5.8343527301        0.1991884886
 H         -0.9582793332        7.1444386251        0.1530912435
 H          1.2365227304        6.0595429931        0.4904454424
 H          3.2621533794        4.2934948552        0.7415163395
 H          4.7041436917        2.3000054155        1.0679551062
 H          5.7382001777       -0.1176093278        1.5276251984
 H          6.1372921620       -2.4557953779        2.2382214156
 H          4.2704193802       -3.8814190961        2.9348287072
 H          1.9621026041       -3.0558455201        2.9082402145
 H         -0.3829044999        0.9764005254        3.3943719489
 H         -2.6627414559        0.2905276477        3.9989091591
 H         -3.4894716094       -1.9535582106        3.3811866145
 H         -1.9861910803       -3.5306299267        2.2108282743
 H          0.2703857351       -2.8349222714        1.5644738512
 H         -2.8898151486       -3.4626875562       -0.6045389761
 H         -2.8792585536       -5.9257422990       -0.2463591581
 H         -0.7732177447       -7.1757450269       -0.2215053994
 H          1.3880797447       -6.0239958786       -0.5523189212
 H          3.3650356317       -4.1883980914       -0.7762953614
 H          4.7410106633       -2.1462362416       -1.0806813982
 H          5.6935138703        0.3147148440       -1.5218353136
 H          6.0121234039        2.6721324684       -2.2097354771
 H          4.0991645880        4.0354326790       -2.9062421100
 H          1.8226652925        3.1264181113       -2.9036870530
 H         -0.3678008535       -1.0033950871       -3.4174231717
 H         -2.6722466316       -0.4155203549       -4.0286967947
 H         -3.5944194899        1.7933464324       -3.4175355758
 H         -2.1609222129        3.4342267854       -2.2471850940
 H          0.1202312028        2.8357771356       -1.5947564906
 H         -4.8491518826       -1.8701504727       -1.0904686086
 H         -7.3189498621       -1.9153978884       -1.0305434725
