  79
       -128.17206561
 C          0.6548368569        0.7133897081        3.1727830171
 C          2.0460668086        0.8095656757        3.0343724544
 C          2.6790932407        0.1946667072        1.9905926438
 C          1.9449706302       -0.5108530903        1.0138376288
 C          2.5746439824       -1.2105561915       -0.0514513323
 N          3.9682950234       -1.1480070882       -0.2096545270
 C          4.8238400441       -2.2286862368       -0.1872134100
 C          4.5419326455       -3.5677945159        0.0399495870
 C          5.5996812724       -4.4562630788        0.0366275800
 C          6.9084018851       -4.0284436123       -0.1798496421
 C          7.1955798801       -2.6947155247       -0.3910005153
 C          6.1491737396       -1.7815295977       -0.3942642424
 C          6.0753649944       -0.3576937302       -0.5664445108
 C          7.0207848933        0.6293375844       -0.8134106272
 C          6.5936050424        1.9352150216       -0.9473199483
 C          5.2416531041        2.2618707598       -0.8552748895
 C          4.2807914424        1.2994798134       -0.6126975428
 C          4.7093781212       -0.0105644416       -0.4502531416
 C          1.8276160655       -1.9792787284       -0.9120984626
 C          0.4340142815       -1.9920535344       -0.8258986238
 C         -0.2184087120       -1.2554009959        0.1349725369
 C         -1.6730370610       -1.1446713587        0.0699051263
 N         -2.5096263506       -2.1457221425        0.0258220905
 C         -3.7484978902       -1.5901029146       -0.0872051647
 C         -5.0031705277       -2.2587012144       -0.1313267881
 C         -5.0857785099       -3.6529495639       -0.0505474498
 C         -6.3078682736       -4.2770827518       -0.0619423904
 C         -7.4676727815       -3.5091636216       -0.1490520725
 C         -7.3980789163       -2.1383231618       -0.2357973546
 C         -6.1675320257       -1.4637969311       -0.2392624258
 C         -6.0594895628       -0.0216286405       -0.3734779047
 C         -7.1892298165        0.7861553498       -0.5666538355
 C         -7.0911890436        2.1451602154       -0.7494996259
 C         -5.8427829235        2.7595554529       -0.7672446570
 C         -4.7116936959        2.0066074496       -0.5702967831
 C         -4.7933826655        0.6246899740       -0.3474634018
 C         -3.6533808632       -0.2003493815       -0.1338546562
 N         -2.3102923603        0.0773029351       -0.0230925088
 C         -1.6349380074        1.3076849087        0.0721278549
 C         -1.9577573653        2.2203883176        1.0735266639
 C         -1.1888478112        3.3521153186        1.2435981946
 C         -0.0867119454        3.5882147756        0.4307978117
 C          0.2017080592        2.7001018053       -0.6110427032
 C         -0.5724329864        1.5621694166       -0.7815580336
 O          1.2398059787        2.9076401934       -1.4775435287
 C          1.7659414702        4.2166472659       -1.4199753185
 C          1.9442215273        4.6437165112        0.0355824473
 O          0.6910305027        4.6847298204        0.6841010134
 C          0.5314214578       -0.5650418615        1.1256745027
 C         -0.0824951940        0.0319387622        2.2459469951
 H          0.1719103858        1.1666369320        4.0254934712
 H          2.6190746973        1.3475877632        3.7750298885
 H          3.7555160235        0.2290676248        1.9180350166
 H          3.5309537323       -3.9018032258        0.2183461549
 H          5.4089527995       -5.5053939838        0.2076795888
 H          7.7073866066       -4.7547032718       -0.1754038068
 H          8.2110940822       -2.3637008031       -0.5481315985
 H          8.0664127499        0.3756218737       -0.9006132510
 H          7.3131653116        2.7180678218       -1.1354890422
 H          4.9417472635        3.2926852796       -0.9793425570
 H          3.2320817083        1.5490703713       -0.5622753239
 H          2.3227520444       -2.5378313218       -1.6923777346
 H         -0.1440268566       -2.5499234894       -1.5463166915
 H         -4.1641073047       -4.2083292474        0.0259943091
 H         -6.3761256351       -5.3530558382        0.0010775974
 H         -8.4325277541       -3.9954161161       -0.1496847907
 H         -8.3219006525       -1.5857044192       -0.2991037629
 H         -8.1703219582        0.3403764295       -0.5843832975
 H         -7.9843235481        2.7345225375       -0.8962894352
 H         -5.7631436149        3.8226912747       -0.9394922958
 H         -3.7438793838        2.4809659413       -0.6039358903
 H         -2.7963555594        2.0295709766        1.7250878210
 H         -1.4077463550        4.0612256113        2.0250407832
 H         -0.3209041449        0.8809935892       -1.5783373480
 H          2.7176767819        4.1880123414       -1.9518265111
 H          1.0833300242        4.9155789693       -1.9222738978
 H          2.3629716910        5.6481242974        0.1088890795
 H          2.6046287372        3.9284138179        0.5459336689
 H         -1.1465078762       -0.0856551338        2.3811979665
