90
 energy: -140.436762135649 gnorm: 0.000039864423 xtb: 6.7.1 (edcfbbe)
C           -6.74455930561592       -4.69672989154202       -0.09567401191741
C           -7.82562553175693       -4.29062091544130        0.67079935826530
C           -8.20665814532634       -2.96238311042937        0.68412055413719
C           -7.50192804228330       -2.02057560311229       -0.06486511008956
C           -7.94090072720639       -0.63207521732986       -0.03632918031261
N           -9.19888880081393       -0.28286553702336        0.02702856062680
C           -9.21669744526062        1.08475461864419       -0.01569341446373
C          -10.28614044190239        1.97323066861544        0.02779852995751
C          -10.00012493244357        3.32175418258315       -0.01153977358381
C           -8.68632538334040        3.79058424433444       -0.08216108048634
C           -7.61019742101719        2.92653422083810       -0.12889275813144
C           -7.89065932489074        1.56954893296466       -0.10979544545586
N           -7.08795194655641        0.44950159964577       -0.12152744171802
C           -5.68421410359794        0.44669310602404       -0.08965157554262
C           -5.00472650825214       -0.27076305003895        0.89348488728886
C           -3.62766066490584       -0.27227664148933        0.91990363179597
C           -2.88333312238244        0.45900230612953       -0.01573517173236
C           -1.42671691760006        0.45914563008995        0.01226561820999
C           -0.71590896220038        1.69890886354198        0.05230208175150
C           -1.37853420613905        2.92425744103901        0.17351585928190
C           -0.69064224593712        4.13462730615594        0.11970154542938
C            0.67548785621207        4.13746846790159       -0.06442665004531
C            1.36813447756688        2.92997117737454       -0.12176518697122
C            0.71052043454075        1.70164608778674       -0.00308625933075
C            1.42535317902383        0.46411277401798        0.03281231420737
C            2.88212629223704        0.46695473433167        0.04837370689654
C            3.61764915328642       -0.26362115542157       -0.89488029623954
C            4.99483211615949       -0.25826295489763       -0.88476618082758
C            5.68383141755417        0.46251860060020        0.08931988575315
N            7.08792203260378        0.47052461794755        0.10374100539130
C            7.94372082405541       -0.60807427372805        0.01018117255989
C            7.51036864017669       -1.99818280243793        0.04524997552678
C            8.20922038952611       -2.93750957275114       -0.71230149632127
C            7.83351697284502       -4.26718849888778       -0.69382881723462
C            6.76384814918802       -4.67715029886849        0.08644904700184
C            6.08127495864009       -3.75317467799070        0.86094450194972
C            6.45013554152864       -2.42062852192572        0.84550339939694
N            9.19958354114525       -0.25444457601305       -0.06893900916522
C            9.21291784382252        1.11328381805728       -0.02885883726317
C           10.27855400198986        2.00549999326228       -0.08685639396114
C            9.98814247569337        3.35306266340770       -0.04732080861908
C            8.67354402380902        3.81730862564546        0.03762539466388
C            7.60118741376440        2.94948211093161        0.09929099245185
C            7.88630773726183        1.59347481724231        0.07995995348172
C            4.96944403607505        1.19201483168126        1.03718790871042
C            3.59128325076858        1.19890433473720        1.00940300616934
C            0.71417840013798       -0.77608557191103        0.05954101321585
C            1.37558559768972       -2.00187219065444        0.18254859007863
C            0.68837904280007       -3.21222260425164        0.12201241611608
C           -0.67675130140812       -3.21490091970595       -0.06909314930284
C           -1.36842339374878       -2.00725641922814       -0.13219931096136
C           -0.71166509109050       -0.77875086921850       -0.01110242335019
C           -3.58324932543414        1.18920874338543       -0.98486457768257
C           -4.96086286931746        1.17825643524013       -1.02914094837858
C           -6.43012480405180       -2.43928285428206       -0.85160756291521
C           -6.05590281795313       -3.77037426368872       -0.86188983232244
H           -6.44539097113526       -5.73439095338748       -0.10346003727666
H           -8.37345966951639       -5.01155461733882        1.25951046228192
H           -9.04916499058206       -2.63064733628935        1.27155495724363
H          -11.29849492418295        1.60690392929772        0.09530880871354
H          -10.80857023195459        4.03751239256333        0.02034375822198
H           -8.50906716669747        4.85586113932110       -0.09907758749765
H           -6.59589381059933        3.29412742980755       -0.17208322737190
H           -5.56665635285531       -0.82034390577764        1.63438794968483
H           -3.11125210150936       -0.81099927084952        1.70015872849668
H           -2.44764971727792        2.93746866678673        0.31896685009423
H           -1.23597482620556        5.06258998443776        0.20733704426979
H            1.21722199704041        5.06776145247112       -0.14967450086895
H            2.43700995699447        2.94796555609312       -0.26827593641003
H            3.09348172138919       -0.80499060648221       -1.66811426825474
H            5.54946682279497       -0.80696544615396       -1.63178317782681
H            9.04279140441721       -2.60259101609807       -1.31055373616522
H            8.37667162550366       -4.98623060991702       -1.28915244188218
H            6.46898703974243       -5.71599543829523        0.09849571106264
H            5.26039606224352       -4.07232013449632        1.48632368910709
H            5.92669346914951       -1.71192503336403        1.47041569157011
H           11.29133799761070        1.64257160817147       -0.16543905351923
H           10.79360625199613        4.07159346827480       -0.09047456716900
H            8.49262619374617        4.88197925765985        0.05394558626913
H            6.58614180866158        3.31352282409216        0.15380493508687
H            5.50279554962030        1.73312752201981        1.80509885254172
H            3.04583136173050        1.74363284880730        1.76574469373146
H            2.44371067883315       -2.01558367326723        0.33183801907903
H            1.23415183049048       -4.13972566252117        0.21048006870293
H           -1.21912739058752       -4.14456416970137       -0.15581952280055
H           -2.43635920263860       -2.02525380061422       -0.28221526488456
H           -3.03016355269940        1.73577348431441       -1.73433158047322
H           -5.48646677224808        1.71754544131432       -1.80361684575459
H           -5.90170458337577       -1.72887286526146       -1.47036462306093
H           -5.22612386185521       -4.08654629390356       -1.47693990631673
