90
 energy: -140.436726862435 gnorm: 0.000054562745 xtb: 6.7.1 (edcfbbe)
C           -6.88854935124878       -4.68746892457712        0.13643847228756
C           -7.93858075519091       -4.23265706122159        0.91854879396908
C           -8.28068555261935       -2.89383755039576        0.90991536744540
C           -7.56802922537419       -1.99040074287414        0.12210971281765
C           -7.96671662119631       -0.58957975573718        0.12986592828685
N           -9.21253593383029       -0.20386263110833        0.21876697604105
C           -9.19391110376690        1.16260254850650        0.14823104507645
C          -10.23683829142191        2.08168569799281        0.20048199368427
C           -9.91483314995843        3.42062330428247        0.12716808530479
C           -8.59071184574933        3.85088539803611        0.01495807087794
C           -7.54069054376627        2.95596471789292       -0.04245933994382
C           -7.85801697528288        1.60795310124934        0.01007014520629
N           -7.08702988253818        0.46571348608680       -0.00019650347909
C           -5.68355994501229        0.42934185745135       -0.01528242875429
C           -4.98556350650111       -0.28774105797382        0.95502651711070
C           -3.60836446580764       -0.30858494188288        0.94072678361516
C           -2.88242415146771        0.40524451299168       -0.02202188571593
C           -1.42516416760634        0.40292875257492       -0.02101474335432
C           -0.71394278371424        1.64268050675832        0.00611687808016
C           -1.37438029527158        2.86949881043372        0.12469355735008
C           -0.68518314571302        4.07884763027320        0.06284619517300
C            0.68033943925875        4.07937060997331       -0.12491648535528
C            1.37111636966078        2.87063126429895       -0.18063599139427
C            0.71204933362813        1.64357897197030       -0.05723884850577
C            1.42573898398191        0.40535043039493       -0.02361177877658
C            2.88298628256954        0.41255399429362       -0.00947941998043
C            3.62247093007239       -0.29911329014951       -0.96333527315225
C            4.99976500818239       -0.27390524166065       -0.96112866847104
C            5.68389983215538        0.44534278518864        0.01732017561564
N            7.08735532725703        0.48476414539360        0.01960497242680
C            7.97046894082662       -0.56873369584245       -0.10145312706629
C            7.57363860334917       -1.97012285315629       -0.09901154258303
C            8.29412245167302       -2.87169048569651       -0.88179165734283
C            7.95267536141305       -4.21063896664827       -0.89625936387755
C            6.89546935142415       -4.66741635276270       -0.12503074218471
C            6.19141347275069       -3.78109219749031        0.67390279076729
C            6.52661223339665       -2.43973472955955        0.69229451113466
N            9.21635973754475       -0.18056940025029       -0.17751362416709
C            9.19421667302480        1.18591337670210       -0.10743086226215
C           10.23566792559434        2.10715481303213       -0.15002817779068
C            9.91012990908440        3.44546378562963       -0.08080378842455
C            8.58411137538181        3.87301270985511        0.01831413099166
C            7.53544293544982        2.97593296598654        0.06580141569201
C            7.85609290515946        1.62857428391690        0.01704015421521
C            4.96494007901180        1.14857467451083        0.98152981989669
C            3.58686097966246        1.13852581541032        0.95969913941164
C            0.71486789035065       -0.83442849503289        0.00413574133109
C            1.37687690501509       -2.06097392621843        0.11546095782198
C            0.68708878172832       -3.27034179224883        0.06140776496405
C           -0.68059106215848       -3.27126428310181       -0.11033204002254
C           -1.37211419330975       -2.06279228234794       -0.16277016502744
C           -0.71174049091831       -0.83547690671465       -0.05069884838059
C           -3.59999885192062        1.12746516002992       -0.98386076742178
C           -4.97835340055190        1.13339102261883       -0.98895403812316
C           -6.52815594186995       -2.45797564357403       -0.67975255527021
C           -6.19220158413924       -3.79921467788635       -0.66708172120199
H           -6.61951136441992       -5.73334761942485        0.14591876891077
H           -8.49257553358107       -4.92367703942702        1.53665210828285
H           -9.09829113494941       -2.52401025931560        1.50966739504388
H          -11.25687927798811        1.74535279489362        0.30069395724055
H          -10.70214162815360        4.15927361298538        0.16499354268016
H           -8.38440994590690        4.91025010339589       -0.02672175315243
H           -6.51807719810142        3.29403846837016       -0.11828557784476
H           -5.53262804914467       -0.81970772070030        1.71948239510342
H           -3.07618241658300       -0.84665581781333        1.71080613294833
H           -2.44279874293404        2.88511043071995        0.27469987685354
H           -1.22926042342843        5.00776738976518        0.14811089010505
H            1.22315674922459        5.00860491144785       -0.21461371919644
H            2.43972253224346        2.88675175888851       -0.32943612590073
H            3.10161203760370       -0.83893562629640       -1.73985411139769
H            5.55760830233793       -0.80437422098727       -1.71880526311368
H            9.11698694170294       -2.50029564529470       -1.47333092803708
H            8.51266111354486       -4.90017282881435       -1.51061303962861
H            6.62676807644732       -5.71333613084275       -0.13937540115404
H            5.37996348662685       -4.13668067494431        1.29190411742889
H            5.98694782410285       -1.76084365232217        1.33621055854909
H           11.25735563651667        1.77293850056838       -0.24007864627945
H           10.69620677462749        4.18575538618742       -0.11149856480989
H            8.37516411125350        4.93196543557412        0.05723500633964
H            6.51140752901513        3.31189819233196        0.13108936628413
H            5.49520099822354        1.68470984195144        1.75502757814492
H            3.03733100582824        1.66725595597475        1.72442937758963
H            2.44705698013566       -2.07592313006520        0.25014257453001
H            1.23272566135914       -4.19880208284482        0.14038066141512
H           -1.22487412415366       -4.20042604259907       -0.19032010614925
H           -2.44239176294260       -2.07907961459485       -0.29663550970375
H           -3.06160344858342        1.65639404686490       -1.75631319726224
H           -5.51958393863986        1.66718711010578       -1.75645996881607
H           -5.99490136487650       -1.77764456994183       -1.32745222909916
H           -5.38637065928614       -4.15324528410612       -1.29327787801494
