90
 energy: -140.504444478587 gnorm: 0.000118272580 xtb: 6.7.1 (edcfbbe)
C           -6.71021334518345       -4.62157284510139       -0.47858044187667
C           -6.03017347305517       -3.77984995188119        0.38662263126955
C           -6.41601399911391       -2.45899827967246        0.52128399217289
C           -7.48755676144569       -1.96390124454386       -0.21984149084900
C           -7.93173139710021       -0.58190468268354       -0.09943780025268
N           -9.18992133752811       -0.22930636938422       -0.12825756926072
C           -9.20909536589345        1.12592369425353        0.06140756691612
C          -10.27906671316915        2.01321718552950        0.11826448613485
C           -9.99374833848795        3.34878486921794        0.30891568616357
C           -8.67999579989738        3.80793368328411        0.43061067561076
C           -7.60333829955246        2.94501886166615        0.37969937993367
C           -7.88359801488404        1.59867601361938        0.20836840498228
N           -7.08078380861923        0.48456889229824        0.10260465099241
C           -5.67374657145762        0.48466806324992        0.08807017564454
C           -4.96948113235850        1.07264135180777        1.13317954047191
C           -3.58736921932704        1.07505464194632        1.11584418959759
C           -2.89069896429207        0.49381072802028        0.06122531130223
C           -1.40913392798192        0.49057304938218        0.05461509476868
C           -0.71344414309605        1.44984847098080       -0.69240242281526
C           -1.39061717845202        2.44204177587742       -1.44999763733687
C           -0.70326305036750        3.37540226476618       -2.16301743632920
C            0.70690231774167        3.37803421237361       -2.15896315710143
C            1.39387932932136        2.44650481096773       -1.44312156348975
C            0.71645908936936        1.45113255007327       -0.68992153572588
C            1.41135178291192        0.49226937211873        0.05870120528136
C            2.89261390967530        0.49598996975452        0.06819183645421
C            3.60777287730732       -0.05379097148930       -0.99183103204589
C            4.98892457796428       -0.05875585598146       -0.98203286816933
C            5.67580611778458        0.48326424312169        0.09975370578895
N            7.08282162477773        0.47921601448377        0.11566244806538
C            7.92972643977781       -0.58318528943393       -0.12235721703783
C            7.48126920432061       -1.96044336026161       -0.27657490434085
C            8.17374080945348       -2.80053352929712       -1.14774338353796
C            7.77839929521825       -4.11470503455373       -1.31013997144548
C            6.69338053865341       -4.60783738181832       -0.60255104164701
C            6.01658847036925       -3.78549653365216        0.28357430906886
C            6.40772369430112       -2.47009795050418        0.45179553792365
N            9.18865464447378       -0.23301848074854       -0.14911816092079
C            9.21257141554899        1.11610206612378        0.07935428759603
C           10.28537019191108        1.99867502567756        0.15372888959877
C           10.00525726040357        3.32866850344068        0.38642988394288
C            8.69388402455548        3.78694128991295        0.53380628383776
C            7.61441360842402        2.92873195251215        0.46492672950044
C            7.88940849313146        1.58760781715374        0.24970149017063
C            4.97030707559525        1.04188547523522        1.15990860028290
C            3.58814381447798        1.04587414360580        1.14028124668196
C            0.71539143074297       -0.47093955487199        0.80104685161702
C            1.39148038102207       -1.46851723134218        1.55245673217343
C            0.70391800484041       -2.40413677629422        2.26221190451003
C           -0.70618214876149       -2.40379899334309        2.26133959949083
C           -1.39211491370088       -1.46787747201181        1.55042767404641
C           -0.71425613500057       -0.47124722524507        0.79935946341196
C           -3.60440939710422       -0.08622009084589       -0.98341965583568
C           -4.98571404379863       -0.08924229590405       -0.97629052153164
C           -8.18270601417102       -2.82246730611167       -1.07051905682886
C           -7.79269112623520       -4.14200116989495       -1.19925747576640
H           -6.40277847304195       -5.65147365820390       -0.58381861559539
H           -5.19728474884141       -4.15437581083068        0.96343416037849
H           -5.89787219098055       -1.81645838046502        1.21764932858561
H          -11.29140028439161        1.65609489455777        0.01201480341062
H          -10.80261571830058        4.06306144424780        0.35871435335283
H           -8.50381073246753        4.86471455089666        0.56759433845875
H           -6.58877892461115        3.30486169011359        0.46521159885272
H           -5.50827066608842        1.51135558752534        1.96020098668936
H           -3.03990114785847        1.52814219631736        1.92927631949048
H           -2.47077166046172        2.44259227621006       -1.44753550229078
H           -1.23166792776992        4.12433837668269       -2.73490468006639
H            1.23572341794007        4.12929197180855       -2.72740630733361
H            2.47396785763122        2.45122042120845       -1.43513027979692
H            3.07445414791062       -0.47913711338782       -1.82896493717084
H            5.54218108542575       -0.48501694576717       -1.80582434454812
H            9.01824092407290       -2.40195298050968       -1.68900462230836
H            8.31756363309813       -4.75657938742187       -1.99122271871460
H            6.38178403285353       -5.63348960206093       -0.73377475866193
H            5.18195322409073       -4.17101538055412        0.85053453231214
H            5.89169130708932       -1.84345094887946        1.16403734790504
H           11.29579881674612        1.64229540336011        0.02857835676724
H           10.81641969014328        4.03915975778489        0.45088755940115
H            8.52169437250056        4.83937112211463        0.70507673449185
H            6.60169640763404        3.28859324283100        0.56978374804720
H            5.50779180901682        1.45611262534639        2.00030041780373
H            3.03969180829862        1.47606765808576        1.96538742800936
H            2.47116587363474       -1.47234816017337        1.54560906389961
H            1.23193637147654       -3.15728997959787        2.82885484510589
H           -1.23524962405583       -3.15652315445731        2.82754694101940
H           -2.47182264399127       -1.47076765263471        1.54173975698229
H           -3.06998353604772       -0.53600273864988       -1.80697727070620
H           -5.53778101707434       -0.53796995437367       -1.78890072937842
H           -9.02493807626936       -2.43398563270360       -1.62255559661293
H           -8.33392721133874       -4.79864985397781       -1.86440337902792
