90
 energy: -140.505213702349 gnorm: 0.000094112150 xtb: 6.7.1 (edcfbbe)
C           -6.80655430110590       -4.49131360679369        1.32410464892750
C           -7.86898420185159       -3.85772790304701        1.94924619785408
C           -8.23387026745054       -2.57937457547082        1.57187114636851
C           -7.53101040191265       -1.91509049462706        0.56755173923937
C           -7.95027470537224       -0.57325214684901        0.18556816298060
N           -9.20178535634708       -0.19921333363495        0.14238074489116
C           -9.19565606067303        1.09677820237607       -0.29787665857294
C          -10.24847040756416        1.97883161278375       -0.51897768324298
C           -9.93797952443667        3.25092024923392       -0.95124009882791
C           -8.61625281236945        3.65364331801044       -1.15637141155972
C           -7.55633156173029        2.79427631252840       -0.94555883484105
C           -7.86187583903238        1.50861796008543       -0.52827772762221
N           -7.07967840722526        0.41964186872963       -0.21217697819963
C           -5.67339007780168        0.40503036875428       -0.17408000736604
C           -5.01106204525790        0.02920580826641        0.99031491057547
C           -3.63058001075270        0.02718839756155        1.02617464218166
C           -2.88963764503208        0.41249385997347       -0.08811743000524
C           -1.41078845585479        0.41441831394618       -0.04423111318248
C           -0.71567953205329        1.63181510802772       -0.02078799536540
C           -1.39289021934993        2.88025091426946       -0.00679707077817
C           -0.70764820302988        4.05603706741601       -0.00220463888159
C            0.70198309171381        4.05722556348831       -0.01547345911900
C            1.38921898313329        2.88261385177638       -0.00862404560979
C            0.71412676236793        1.63305419056129        0.00745331060118
C            1.41137561667346        0.41690445833675        0.03292492890569
C            2.89014369967867        0.41788561095631        0.07935731498702
C            3.63431443591767        0.03189736225434       -1.03251691296025
C            5.01471361385325        0.03673371347616       -0.99352282061317
C            5.67371527877687        0.41612853004875        0.17160209504716
N            7.07988215759481        0.43318562642781        0.21286327617505
C            7.95273574200015       -0.55924749592060       -0.18102902294693
C            7.53581696535396       -1.90241536158678       -0.56095458393967
C            8.24022649477021       -2.56764256685978       -1.56352390740629
C            7.87734675749965       -3.84726272082658       -1.93858833476105
C            6.81544599111892       -4.48112018278408       -1.31284081315962
C            6.12631318774661       -3.83439405834934       -0.29982424823919
C            6.48195824134222       -2.55288805814744        0.07844395746213
N            9.20362860516624       -0.18345883569592       -0.13575217250590
C            9.19471288402554        1.11337276714999        0.30206251383099
C           10.24581322569689        1.99728283120600        0.52391072049500
C            9.93261760680791        3.26976041740942        0.95305589328807
C            8.60988649001795        3.67106888576036        1.15441059736385
C            7.55162555900498        2.80985103014120        0.94282937226135
C            7.85985773977572        1.52381519909717        0.52869351310705
C            4.94006595532725        0.80090873427224        1.28868093651228
C            3.55885268256750        0.80385692554778        1.23742592723456
C            0.71589915342281       -0.80049094139290        0.01834562908158
C            1.39155376357424       -2.04883774929571        0.06509988048418
C            0.70706583617571       -3.22465835724485        0.03556415306140
C           -0.70028723606445       -3.22587857675861       -0.04480950124031
C           -1.38673730767705       -2.05122333929688       -0.07491283267677
C           -0.71315326163285       -0.80172456578196       -0.02917497561668
C           -3.56164953441170        0.79480146404285       -1.24545448453971
C           -4.94297949028532        0.78898875980885       -1.29356810098548
C           -6.47666585061042       -2.56536792147442       -0.07124515469726
C           -6.11900595748620       -3.84563460354167        0.30934252012490
H           -6.52067924313824       -5.48958529789731        1.62073229578386
H           -8.41495869056369       -4.36171004218950        2.73308570867801
H           -9.06178895509784       -2.07416492703309        2.04549775313519
H          -11.26717592543774        1.66762225869141       -0.34856464336846
H          -10.73321639069956        3.95947064958176       -1.13139664511759
H           -8.42022238984829        4.66375223559766       -1.48476412793989
H           -6.53531427117042        3.11239307310261       -1.09491674757520
H           -5.58261947162465       -0.26066440346681        1.85964185153388
H           -3.11764003171256       -0.26442515940143        1.93066484165808
H           -2.47274040424157        2.88058160356967        0.00275281341366
H           -1.23774970225945        4.99735026517214        0.00835230026999
H            1.23048637633622        4.99941655249601       -0.02793837322604
H            2.46906841311566        2.88474954892245       -0.01823107532714
H            3.12405648686095       -0.26241806240921       -1.93764487781438
H            5.58879231677556       -0.25371856282048       -1.86099100827688
H            9.06772883278420       -2.06224647697249       -2.03767709959051
H            8.42451729999352       -4.35205164937765       -2.72106789029296
H            6.53120334750762       -5.48039769795521       -1.60764174210502
H            5.31079098908338       -4.33279807794024        0.20335206163384
H            5.95389336881371       -2.06491717243837        0.88456367811306
H           11.26531709398072        1.68713501372080        0.35638833745704
H           10.72648910281495        3.97968276834808        1.13383261675129
H            8.41175135439928        4.68149781286330        1.48054638895311
H            6.52984767997472        3.12684806079397        1.08927909558470
H            5.45525616370305        1.08390406717323        2.19489023530229
H            2.98938014374385        1.09929385646608        2.10644665076170
H            2.46929793819113       -2.04777746090095        0.12396948440245
H            1.23627652215264       -4.16578841660823        0.07000681305192
H           -1.22784343864440       -4.16791692845622       -0.07972173627492
H           -2.46447863234224       -2.05194437482355       -0.13389422038121
H           -2.99476147442295        1.08964696328404       -2.11636477201973
H           -5.46076170982953        1.06916791940912       -2.19917566172076
H           -5.94981772483870       -2.07830428990734       -0.87870613261711
H           -5.30308243737389       -4.34390191656993       -0.19332257321059
