  90
       -140.37777063
 C         -6.1767380975       -4.6573232206       -0.0537372280
 C         -7.3311241823       -4.3822910731        0.6616597032
 C         -7.8608271803       -3.1062078145        0.6611632381
 C         -7.2351384079       -2.0860286081       -0.0530917198
 C         -7.8192759695       -0.7520540704       -0.0319694891
 N         -9.1036571311       -0.5240415705       -0.0263760457
 C         -9.2507155243        0.8351924582       -0.0649423782
 C        -10.4000182412        1.6177785522       -0.0724953375
 C        -10.2418121237        2.9872506373       -0.1013059905
 C         -8.9773975803        3.5799578720       -0.1123809579
 C         -7.8227325327        2.8231475269       -0.1060963658
 C         -7.9739995557        1.4459286613       -0.0967519268
 N         -7.0702448455        0.4090410942       -0.0688555321
 C         -5.6771674110        0.5160957254        0.0030978455
 C         -4.9751642665       -0.1719515553        0.9924462732
 C         -3.6006789790       -0.1225212002        1.0227418088
 C         -2.8815670447        0.6298869069        0.0836404189
 C         -1.4276073967        0.6355423734        0.0828541916
 C         -0.7160777256        1.8745525053        0.0911473988
 C         -1.3746784506        3.1009338292        0.2193130906
 C         -0.6870957688        4.3087490574        0.1335660434
 C          0.6734698019        4.3080648544       -0.0890952365
 C          1.3635767069        3.1004393605       -0.1530163728
 C          0.7073000969        1.8751026092       -0.0029642839
 C          1.4194596697        0.6375343482        0.0256223674
 C          2.8736366195        0.6288215178       -0.0035346400
 C          3.5676438859       -0.1381876265       -0.9495715995
 C          4.9422766943       -0.1864320371       -0.9560903176
 C          5.6706047751        0.5133240711        0.0060155164
 N          7.0653849721        0.4117876079        0.0379735647
 C          7.8204292416       -0.7441433586       -0.0349946057
 C          7.2500577971       -2.0839594018       -0.0119514628
 C          7.8669329211       -3.0877536924       -0.7567535915
 C          7.3526310015       -4.3700551492       -0.7586702005
 C          6.2225211145       -4.6678264716       -0.0141763544
 C          5.6209944009       -3.6812280531        0.7499499054
 C          6.1308799302       -2.3965358643        0.7583014626
 N          9.1023963941       -0.5076821322       -0.0800977984
 C          9.2425649402        0.8519540624       -0.0338464875
 C         10.3872817122        1.6406389719       -0.0587117864
 C         10.2227924692        3.0090835678       -0.0157844285
 C          8.9561814128        3.5940520927        0.0404701979
 C          7.8059327562        2.8306397433        0.0673405745
 C          7.9639079697        1.4543460088        0.0446050858
 C          4.9982228494        1.3002609832        0.9384598560
 C          3.6216018624        1.3632438412        0.9248406802
 C          0.7101149005       -0.6020728848        0.0918915232
 C          1.3747850540       -1.8254815348        0.2215967298
 C          0.6855361258       -3.0350306802        0.1956391324
 C         -0.6829940476       -3.0397346221        0.0308696269
 C         -1.3762191585       -1.8340303375       -0.0371950213
 C         -0.7163981442       -0.6045586681        0.0562438009
 C         -3.6051965472        1.3547989006       -0.8719200286
 C         -4.9807954728        1.2942068311       -0.9192192049
 C         -6.0908951266       -2.3757908006       -0.7950025610
 C         -5.5657384350       -3.6542536199       -0.7881881762
 H         -5.7597176713       -5.6534069704       -0.0484739696
 H         -7.8185799189       -5.1661112257        1.2220807077
 H         -8.7603961048       -2.8756804991        1.2101777132
 H        -11.3741524017        1.1567906553       -0.0517650798
 H        -11.1143692026        3.6233229469       -0.1092232614
 H         -8.9020718569        4.6570859234       -0.1247208949
 H         -6.8463590198        3.2845691924       -0.1033960717
 H         -5.5189524250       -0.7468835177        1.7270179247
 H         -3.0631794406       -0.6429973770        1.8011525643
 H         -2.4389341786        3.1150714702        0.3958539065
 H         -1.2281917069        5.2381504199        0.2272430986
 H          1.2124781742        5.2367724115       -0.2001515465
 H          2.4277457660        3.1136217514       -0.3300608011
 H          3.0092372502       -0.6719803317       -1.7038259930
 H          5.4662999426       -0.7684087901       -1.6993721124
 H          8.7476207324       -2.8395992812       -1.3282530227
 H          7.8331352294       -5.1405029939       -1.3431870188
 H          5.8171752532       -5.6687019111       -0.0204426215
 H          4.7523988989       -3.9141956532        1.3488300173
 H          5.6705393405       -1.6429898585        1.3799961350
 H         11.3626714709        1.1853463658       -0.1152300364
 H         11.0918301233        3.6497987055       -0.0325670731
 H          8.8750220648        4.6706299652        0.0618334784
 H          6.8280590510        3.2877184986        0.0983063011
 H          5.5614280931        1.8319757177        1.6910663033
 H          3.1054128906        1.9420865730        1.6764012349
 H          2.4459341575       -1.8389446785        0.3498923975
 H          1.2317647875       -3.9615210171        0.2892212259
 H         -1.2267654976       -3.9703506151       -0.0310118961
 H         -2.4466561312       -1.8561686631       -0.1698019594
 H         -3.0692820689        1.9246188461       -1.6164318963
 H         -5.5251879274        1.8196917248       -1.6899205753
 H         -5.6221056378       -1.6092465633       -1.3940831662
 H         -4.6779225023       -3.8693424291       -1.3652099289
