94
 energy: -131.473615087019 gnorm: 0.000064930802 xtb: 6.7.1 (edcfbbe)
C           -2.47728017140046        8.25919474095271       -0.30763712997901
C           -2.79702201827461        6.97324543427205        0.44410815426401
C           -2.62609801889271        5.74446265311787       -0.44459538379776
C           -2.95094627316407        4.44973729096997        0.31064421309744
N           -2.78368948472020        3.27197676660518       -0.50918341662424
C           -3.94983282643340        2.83587260951382       -1.24051539160594
C           -4.76433588935066        1.77768004078390       -0.48369728512147
C           -5.99768678016497        1.35022993324513       -1.27515893811402
C           -6.81082393558569        0.29129797964794       -0.54069336615718
C           -1.58777480848059        2.61612221592766       -0.59484068503875
C           -1.47774909485244        1.37453928106041       -1.25109418419076
C           -0.28345517006405        0.69777834870710       -1.28078773251279
C            0.86853846806263        1.20507365046829       -0.68675427846327
C            2.10231582579811        0.38058379451010       -0.63488193421664
N            3.30113092956676        1.12172904150833       -0.60584738188553
C            4.42513763018993        0.54486715883228       -0.25427649076961
C            5.66896497581349        1.16626950747512       -0.46373176223905
C            6.84547667736805        0.50593938550384       -0.18098103617942
C            8.08476955550619        1.13729020640665       -0.41513783536050
N            9.08433264565181        1.66549710438121       -0.60932604507676
C            6.81833030619228       -0.82392040434659        0.33395271949619
C            8.03106227275648       -1.49728939285856        0.58911766961457
N            9.00842762438720       -2.05942070404285        0.80030425293579
C            5.61521577438359       -1.44338789396006        0.59657963233949
C            4.39723860184880       -0.77941488667297        0.36705644287816
N            3.24824427240856       -1.31766992638530        0.69854582596400
C            2.07613047003050       -0.53442717067573        0.71108928402626
C            0.81327545179281       -1.31434615811371        0.74720674511259
C           -0.33017019444562       -0.76073879472464        1.31646216488653
C           -1.54500742466440       -1.39911828005510        1.27940652218680
C           -1.68754323539373       -2.64354619452947        0.63380072028624
N           -2.90172284957737       -3.26468351438756        0.54853433542686
C           -4.12311249696454       -2.60345274964703        0.94430964292413
C           -4.45177003168380       -2.82250460376251        2.42778419845251
C           -5.67214121714506       -2.02342230801480        2.88573322220801
C           -5.37917925549761       -0.53675670714145        3.05456468384679
C           -3.04080381815052       -4.60869649706961        0.03813669553594
C           -3.20290266071749       -4.64517379284865       -1.48685031521623
C           -3.33912198946594       -6.07377717623806       -2.00563864730562
C           -3.50289398695935       -6.10886485118784       -3.52002985260401
C           -0.53212623897793       -3.21559445131431        0.08940323475101
C            0.69644092428661       -2.57676199519322        0.14267520575028
O            1.75700171816372       -3.20901460541820       -0.40011917883694
C            0.78512274984547        2.46397128864289       -0.06950121202635
O            1.86037024136651        3.05794572341667        0.48772612944594
C           -0.42071641391903        3.14568001931408       -0.03236383717670
H           -3.13726949395860        8.37553127323807       -1.16450662521394
H           -1.45069005696817        8.24509249606128       -0.66616912955331
H           -2.60238927819726        9.12226616556204        0.34149041944806
H           -2.13737492153837        6.88641422502915        1.31027226391316
H           -3.82451805882884        7.01350317971515        0.81378826034906
H           -1.60049445674460        5.69793913339875       -0.81388585456337
H           -3.28365776268212        5.82785864968737       -1.31295892847305
H           -3.99029226478176        4.48233429063515        0.65047865851690
H           -2.32158672699052        4.36848852847406        1.19967271394595
H           -3.65042705155763        2.44616525194113       -2.21677666347750
H           -4.58239149060105        3.70903317143565       -1.42164635564491
H           -5.07156378301801        2.18641578524950        0.48180539690852
H           -4.12965408621164        0.91068698337019       -0.28884300654418
H           -5.68435047639976        0.95748869987854       -2.24523470723921
H           -6.62601589935951        2.22415496171413       -1.46092835690622
H           -6.21587005680993       -0.60513036334391       -0.38094479390320
H           -7.13874860041227        0.66302074033635        0.42740750383490
H           -7.69060925220527        0.01936630797178       -1.11868998121420
H           -2.32981275845952        0.92057874471871       -1.72651275265532
H           -0.23684460802721       -0.26324807898279       -1.77250347777190
H            2.11041809865406       -0.33335477976226       -1.47524089012609
H            5.68431862799610        2.15585578057274       -0.89457346048831
H            5.58927139514939       -2.43275270637064        1.02744124908884
H            2.09801695366626        0.17983504291806        1.55099652441304
H           -0.25666600857721        0.19981765001010        1.80580912667917
H           -2.38058016579117       -0.92696125089716        1.76587423507389
H           -4.04268695081113       -1.53707758943823        0.72643449955976
H           -4.93955215428507       -3.00176147094172        0.33455659043619
H           -3.58567213222240       -2.54604881295555        3.03138245998362
H           -4.63513777387002       -3.88711730240176        2.58799970380454
H           -6.48450587925868       -2.15753202171973        2.16749960205570
H           -6.01070256128147       -2.42250929153051        3.84391543105871
H           -5.08729574801561       -0.08056212917182        2.11236546929161
H           -4.57651272800821       -0.38802533428806        3.77369910817816
H           -6.26322239507238       -0.01931909765326        3.41974250215569
H           -3.92155735169734       -5.05900902109570        0.50457040979278
H           -2.17556737137013       -5.20541954420818        0.33557398931767
H           -2.33929339900306       -4.16673883107118       -1.95153085575033
H           -4.08826637361898       -4.06959400747732       -1.76739671802696
H           -4.20270089744673       -6.54970240805500       -1.53495287741147
H           -2.45235202563999       -6.64552735953603       -1.72383839757102
H           -2.64168397943728       -5.65682153953171       -4.00660318121737
H           -4.39309948356607       -5.56098459244648       -3.82151416975930
H           -3.59600867499380       -7.13374214912248       -3.87034421727290
H           -0.54550813365828       -4.17197368317297       -0.40396950433816
H            2.56706075905721       -2.72592131550046       -0.11984143429484
H            2.65721060847763        2.55161004944621        0.21127586011931
H           -0.40298321109005        4.11116103796992        0.44252266612722
