60
 energy: -95.789547300827 gnorm: 0.000053178576 xtb: 6.7.1 (edcfbbe)
C            1.65349711152891        1.36297935765307       -2.55232808892020
C            0.52613114185112        1.37587050381677       -1.75234497875705
C            0.59830523549076        0.95050020320763       -0.42773777490173
C           -0.59829440576785        0.95051833868026        0.42771636623627
C           -0.52611742079273        1.37593039691589        1.75230994286208
C           -1.65348453600190        1.36307745068130        2.55229197414019
C           -2.86712729666170        0.92909584807786        2.05055960901881
C           -2.95344733776270        0.52143276223840        0.72297800505700
N           -4.17453019576302        0.07115296253444        0.19630029081491
C           -5.42609569763099        0.61961988875757        0.41420060578397
C           -5.77887327347107        1.79304397681748        1.06572889317627
C           -7.11857585305228        2.12880062721403        1.11591771920842
C           -8.09439779296367        1.32823311263813        0.52657345880865
C           -7.75002028120088        0.17623331372576       -0.15101896080086
C           -6.40936518429805       -0.18007360824424       -0.21628423074520
C           -5.70854464126935       -1.25823625325184       -0.85000606338539
C           -6.06076876744172       -2.36362381289032       -1.60810197406507
C           -5.03549070285704       -3.18736072015185       -2.04544882205066
C           -3.71810147332566       -2.88381052343344       -1.71373681499007
N           -3.35038510478637       -1.83747466148372       -0.99274360459339
C           -4.33032599108901       -1.05207354751500       -0.57850177723614
C           -1.82165029114200        0.53014902124973       -0.08131892754930
C            1.82165688254180        0.53013339956565        0.08130928924271
C            2.95345356919813        0.52138173554312       -0.72298787301856
N            4.17453090639692        0.07109977377361       -0.19629886831691
C            5.42610337362505        0.61954319804525       -0.41421712096827
C            5.77889537359605        1.79294567174258       -1.06577651042163
C            7.11860208531918        2.12868409211931       -1.11597473008200
C            8.09441438909113        1.32811849099016       -0.52661205165424
C            7.75002310580611        0.17613936628883        0.15100829456264
C            6.40936335259093       -0.18014724263584        0.21628625313980
C            5.70852921262887       -1.25828214392528        0.85004055620550
C            6.06073954407184       -2.36365346205159        1.60816677679346
C            5.03545266040026       -3.18737191959069        2.04552640315909
C            3.71806814622082       -2.88381778341572        1.71380133131883
N            3.35036311292623       -1.83749087636720        0.99278982469964
C            4.33031278371379       -1.05211030518718        0.57853041425976
C            2.86713697387754        0.92900607807762       -2.05058174276597
H            1.58695650107015        1.68429013767983       -3.58147995434329
H           -0.41380060277281        1.72634409804327       -2.15130501515308
H            0.41382178350283        1.72638979271551        2.15126499564191
H           -1.58693529186509        1.68439295141498        3.58144164608488
H           -3.73694929349312        0.88338116906226        2.68782828599457
H           -5.03234839697627        2.43607847560042        1.50565714694137
H           -7.41527284655904        3.03665456005228        1.62010036244614
H           -9.13087881597424        1.62362436025759        0.59203838133027
H           -8.50138714084393       -0.43507594167457       -0.62779406721960
H           -7.09303163917130       -2.57454177659934       -1.84737966777470
H           -5.24887697411699       -4.06170439549470       -2.64023307879006
H           -2.90519654345338       -3.51523896066935       -2.04632153076655
H           -1.89435377855284        0.17231785793859       -1.09542237718140
H            1.89435496503800        0.17232287185495        1.09542041292682
H            5.03237802136150        2.43597896253672       -1.50571938895689
H            7.41531048051403        3.03651991070688       -1.62018342846809
H            9.13089954174705        1.62349304908293       -0.59208852123010
H            8.50138246594414       -0.43516697135191        0.62779909601955
H            7.09300125904057       -2.57458261211674        1.84744156970675
H            5.24882754159432       -4.06169926279300        2.64033971693308
H            2.90515253440749       -3.51521130043714        2.04642750608411
H            3.73696051596477        0.88327031398974       -2.68784718347913
