  60
        -95.79139181
 C          1.5477426764       -2.6127970625        1.1915343871
 C          0.4451766599       -1.7794197999        1.1593029465
 C          0.5797950253       -0.4533207491        0.7524871141
 C         -0.5797227218        0.4501483643        0.7533478051
 C         -0.4443605608        1.7758768845        1.1612492342
 C         -1.5465540404        2.6096587613        1.1950302817
 C         -2.7948816904        2.1444768968        0.8211980360
 C         -2.9334985191        0.8295320917        0.3887005832
 N         -4.1897207757        0.3277901310        0.0131956620
 C         -5.1575905817        0.9726737562       -0.7360614940
 C         -5.0985934239        2.1877540408       -1.4037054131
 C         -6.2137525233        2.5917938851       -2.1130331353
 C         -7.3646089017        1.8090565174       -2.1721560545
 C         -7.4213657788        0.5851012376       -1.5370278595
 C         -6.3118085215        0.1574504217       -0.8196351767
 C         -6.0153793198       -1.0399589829       -0.0891469941
 C         -6.6906925182       -2.2108252688        0.2164122143
 C         -6.0161149086       -3.1543277243        0.9753336109
 C         -4.7148146986       -2.8972383352        1.3964733290
 N         -4.0431678704       -1.7908980927        1.1214389021
 C         -4.6885051398       -0.8931941409        0.3945313413
 C         -1.8297920334       -0.0117365213        0.3591223859
 C          1.8294322313        0.0092854573        0.3577177025
 C          2.9335894565       -0.8314110707        0.3861570189
 N          4.1894939276       -0.3282259634        0.0115476148
 C          5.1590606494       -0.9717103457       -0.7367055036
 C          5.1024167262       -2.1865688694       -1.4049097249
 C          6.2190699725       -2.5892018198       -2.1126995808
 C          7.3691508195       -1.8052005074       -2.1699713227
 C          7.4236087354       -0.5813573108       -1.5343719336
 C          6.3125153149       -0.1551861417       -0.8184248275
 C          6.0138640377        1.0415095006       -0.0877882414
 C          6.6877339842        2.2128774256        0.2194705806
 C          6.0112942485        3.1552292201        0.9780680087
 C          4.7094817339        2.8966048098        1.3971054383
 N          4.0393472988        1.7895708012        1.1207562921
 C          4.6865830847        0.8929530448        0.3942746708
 C          2.7957021973       -2.1467996596        0.8174333752
 H          1.4403479847       -3.6339104592        1.5270516272
 H         -0.5192824177       -2.1444226420        1.4781540382
 H          0.5203816702        2.1400999668        1.4800510702
 H         -1.4385347046        3.6304110631        1.5313564317
 H         -3.6597536116        2.7867837626        0.8864429999
 H         -4.2057521909        2.7933056865       -1.3875736411
 H         -6.1901681990        3.5349793259       -2.6384883577
 H         -8.2159295682        2.1625435770       -2.7344481006
 H         -8.3035938234       -0.0340770702       -1.5990577941
 H         -7.7020830339       -2.3807536768       -0.1232342999
 H         -6.4899576235       -4.0857380305        1.2427079363
 H         -4.1743076230       -3.6227298580        1.9898658508
 H         -1.9538297359       -1.0280812107        0.0227159118
 H          1.9528308685        1.0260096894        0.0221929068
 H          4.2101440547       -2.7930567869       -1.3904358129
 H          6.1971769374       -3.5321947294       -2.6387279348
 H          8.2215113544       -2.1574894343       -2.7313637887
 H          8.3051016281        0.0388756848       -1.5950148817
 H          7.6996999613        2.3839898222       -0.1183914047
 H          6.4841348318        4.0868646726        1.2470774281
 H          4.1674261740        3.6212455038        1.9901113480
 H          3.6608521759       -2.7887449657        0.8820073125
