60
 energy: -95.791426367951 gnorm: 0.000023375807 xtb: 6.7.1 (edcfbbe)
C            1.55817997214300       -2.60428090887895        1.20191208622010
C            0.45241855385367       -1.77525731619940        1.16695381342053
C            0.58191223458062       -0.45007711211420        0.75565221561475
C           -0.58173637769723        0.44832739556381        0.75604608865973
C           -0.45222275363803        1.77299605090753        1.16899971346570
C           -1.55786240968089        2.60215440809753        1.20452051032841
C           -2.80327427233602        2.13336123080270        0.82584070236924
C           -2.93591691128659        0.81973368569565        0.38714590808772
N           -4.19025897487111        0.31743281247509        0.00581471201891
C           -5.15844162815485        0.96865857236510       -0.73768027699286
C           -5.09652409018215        2.18538646308228       -1.40211741307231
C           -6.21274629032288        2.59677134452619       -2.10546048137894
C           -7.36748082031141        1.81958858164986       -2.16192235848470
C           -7.42694447224293        0.59360992176050       -1.53088969162344
C           -6.31620455972714        0.15850766207875       -0.81978816537247
C           -6.02169122359611       -1.04263176874160       -0.09470732843510
C           -6.70102566928188       -2.21136176722288        0.20974232859793
C           -6.02748223147199       -3.16044416208123        0.96258093618650
C           -4.72314980985217       -2.91075453254028        1.37870465907136
N           -4.04784817605155       -1.80617730231067        1.10526350016140
C           -4.69239403043650       -0.90296044047036        0.38459911235757
C           -1.82918337680766       -0.01755585813894        0.35762432969789
C            1.82942348918830        0.01641260344501        0.35814944220186
C            2.93629205342933       -0.82072290295935        0.38710110363751
N            4.19063980609191       -0.31772705770708        0.00672148841252
C            5.15928959668128       -0.96789355960294       -0.73711093500658
C            5.09821017554633       -2.18420528996753       -1.40238988777581
C            6.21477176525239       -2.59443346276208       -2.10587489556188
C            7.36903655983267       -1.81651049161699       -2.16169527538648
C            7.42767965153332       -0.59093896696698       -1.52980001958099
C            6.31660851620537       -0.15703021600170       -0.81849076425307
C            6.02134209407007        1.04342533285240       -0.09258874205993
C            6.70003077445972        2.21227926496368        0.21282559093336
C            6.02588885469109        3.16045909815620        0.96626580332147
C            4.72162956899561        2.90977643895582        1.38201688292076
N            4.04695182958464        1.80504415158621        1.10767218211457
C            4.69206027699206        0.90268351151337        0.38643189122165
C            2.80367941797379       -2.13485847811987        0.82428713635019
H            1.45528059396067       -3.62429038133196        1.54211552030236
H           -0.51055903747409       -2.14241594638697        1.48778613796423
H            0.51069231073543        2.13963339627243        1.49061545687007
H           -1.45494018768104        3.62173967342752        1.54598590744290
H           -3.67103805477904        2.77167362862012        0.89212540127504
H           -4.20059724128126        2.78648129553207       -1.38813798729225
H           -6.18699507031304        3.54145317338115       -2.62824681602105
H           -8.21980320375750        2.17909138165760       -2.71880291088158
H           -8.31237588915303       -0.02117444121366       -1.59093462514529
H           -7.71485604472355       -2.37527568666113       -0.12567420112204
H           -6.50466071285383       -4.09045229107543        1.22926153123459
H           -4.18339203059522       -3.64095943104112        1.96698734058951
H           -1.94855006039079       -1.03348013110113        0.01804298344287
H            1.94873629836550        1.03273577400918        0.01975446605427
H            4.20266374751426       -2.78587359961050       -1.38896863340009
H            6.18967025351398       -3.53880246048836       -2.62925545004791
H            8.22162686744347       -2.17509162051510       -2.71876048801017
H            8.31271744962447        0.02446081785991       -1.58936262727504
H            7.71381863392834        2.37696258404603       -0.12233409346628
H            6.50254289841751        4.09051712448957        1.23370176748151
H            4.18139629662180        3.63926761890123        1.97075001118294
H            3.67150464001586       -2.77311758207120        0.89024549573148
