  52
  -85.6804800100000       0.261555077779903      !
 C          5.8987450452       -2.9174131330        0.1199253583
 C          4.8458188422       -2.9638887567        1.0204796395
 C          3.8567374307       -2.0007048079        0.9891653155
 C          3.9107151066       -0.9776991028        0.0428572311
 N          2.9086518647       -0.0008787077        0.0055190718
 C          3.1000330564        1.3554749345       -0.0466125724
 C          4.2804497053        2.0877491084       -0.0341493513
 C          4.1862891540        3.4667832737       -0.0639439440
 C          2.9466566797        4.1183785650       -0.1011916265
 C          1.7685067889        3.4099803537       -0.0894996241
 C          1.8314921490        2.0121751816       -0.0525572830
 C          0.8481488745        0.9972818136        0.0011144628
 C         -0.5621594795        1.0010539041        0.0037151465
 C         -1.2750733757       -0.2077612466        0.0202016185
 C         -0.5424456901       -1.4066984361        0.0229743658
 C          0.8658398799       -1.4511369142        0.0221795516
 C          1.5411741100       -0.2493449913        0.0333145675
 O         -1.1602723892       -2.6077393209        0.0262559554
 C         -2.5168049281       -2.7308665693       -0.0476308485
 C         -2.9592349942       -4.0509717590       -0.0951145853
 C         -4.3105942799       -4.3280570120       -0.2072587706
 C         -5.2112661236       -3.2720406146       -0.2845172174
 C         -4.7682229686       -1.9651485679       -0.2284483004
 C         -3.4118996738       -1.6272969803       -0.0840518394
 B         -2.8036655826       -0.2140078827        0.0142294359
 C         -3.4270800250        1.1941502478        0.0818203707
 C         -4.7884397686        1.5230717311        0.1995183468
 C         -5.2436573708        2.8268128004        0.2225614546
 C         -4.3521815722        3.8890800697        0.1352921721
 C         -2.9968848802        3.6211770042        0.0486074493
 C         -2.5439601296        2.3046767423        0.0336408183
 O         -1.1828684617        2.1902846299       -0.0192194033
 C          4.9672193239       -0.9356667040       -0.8660534925
 C          5.9549013043       -1.8998421614       -0.8201169207
 H          6.6712115122       -3.6703610316        0.1501905677
 H          4.8002676184       -3.7516662958        1.7575196648
 H          3.0507390286       -2.0187205502        1.7066678880
 H          5.2413801965        1.5992303972        0.0130297999
 H          5.0902264445        4.0572621882       -0.0545871738
 H          2.9250318076        5.1973909154       -0.1289266557
 H          0.8098036564        3.9024736179       -0.1027414876
 H          1.3667784936       -2.4055622859        0.0018314573
 H         -2.2261076985       -4.8421729520       -0.0537208851
 H         -4.6539061686       -5.3500783190       -0.2453576772
 H         -6.2677185404       -3.4762764080       -0.3866513551
 H         -5.4924239621       -1.1713803127       -0.3065797664
 H         -5.5073406545        0.7249250531        0.2861338197
 H         -6.3030788634        3.0234088608        0.3072197218
 H         -4.7052978457        4.9085357674        0.1441439760
 H         -2.2714860645        4.4187533711       -0.0022676700
 H          4.9932938996       -0.1590026033       -1.6155003590
 H          6.7691131284       -1.8633535668       -1.5280680766
  52
  -85.6804768000000       0.260668133309511      !
 C          5.9089745775       -2.9095621777       -0.0107009209
 C          5.9542161668       -1.8882748808        0.9260092583
 C          4.9614139788       -0.9289179316        0.9620144332
 C          3.9105940548       -0.9796433783        0.0466070444
 N          2.9068222156       -0.0040199448        0.0701222617
 C          3.0986950928        1.3530586700        0.1028242381
 C          4.2798639333        2.0840721654        0.0940093727
 C          4.1866893256        3.4635366016        0.1031060776
 C          2.9472703222        4.1165116536        0.1168860684
 C          1.7686730958        3.4089059719        0.1000566375
 C          1.8307451964        2.0105212266        0.0832973386
 C          0.8473759151        0.9955981449        0.0344296042
 C         -0.5627584804        1.0003627303        0.0052222978
 C         -1.2767856028       -0.2076137768       -0.0159636432
 C         -0.5453958009       -1.4071337774        0.0098163289
 C          0.8628891074       -1.4527405688        0.0415206103
 C          1.5396821783       -0.2519453085        0.0279318410
 O         -1.1642269832       -2.6074100737        0.0132665156
 C         -2.5196911874       -2.7304254595       -0.0798461479
 C         -2.9618694606       -4.0511348156       -0.1139705051
 C         -4.3115942461       -4.3299845504       -0.2399392308
 C         -5.2103986018       -3.2749369197       -0.3455071803
 C         -4.7673431917       -1.9674378443       -0.3040630480
 C         -3.4129049598       -1.6269383264       -0.1481792530
 B         -2.8052915654       -0.2126237180       -0.0564302852
 C         -3.4287268312        1.1959037170        0.0089342289
 C         -4.7931024692        1.5260114354        0.0807121451
 C         -5.2468905497        2.8297799442        0.1204078834
 C         -4.3511140753        3.8918176571        0.1001279525
 C         -2.9941596049        3.6224935796        0.0550135996
 C         -2.5433712065        2.3057309787        0.0178510306
 O         -1.1813987071        2.1905242019        0.0001083908
 C          3.8662871787       -2.0077069488       -0.8946482114
 C          4.8606260212       -2.9657982218       -0.9164457174
 H          6.6861408719       -3.6578696541       -0.0343034429
 H          6.7647768059       -1.8443416746        1.6381757767
 H          4.9795159331       -0.1486952004        1.7079715071
 H          5.2406318381        1.5939918222        0.0646251319
 H          5.0910462378        4.0531677239        0.0957041791
 H          2.9265960566        5.1959498835        0.1298455966
 H          0.8103950751        3.9022988475        0.0940143336
 H          1.3624027120       -2.4069749197        0.0897589518
 H         -2.2295752159       -4.8413540501       -0.0472812661
 H         -4.6553181064       -5.3524353680       -0.2648463115
 H         -6.2655610144       -3.4801264635       -0.4582317991
 H         -5.4915483395       -1.1755551425       -0.4018938457
 H         -5.5172173619        0.7286771783        0.1121779346
 H         -6.3086634973        3.0265870352        0.1662503211
 H         -4.7024229595        4.9115742910        0.1269351037
 H         -2.2656860724        4.4192365477        0.0534708213
 H          3.0636761793       -2.0337336714       -1.6161431720
 H          4.8232179897       -3.7567671746       -1.6506099852
  52
  -85.6804156200000       0.244327055210301      !
 C          5.8981485807       -2.9020727162       -0.2532397329
 C          5.9399692846       -1.9739149709        0.7759804101
 C          4.9515281993       -1.0162390042        0.8941802596
 C          3.9087255563       -0.9754071429       -0.0303560211
 N          2.9065862414       -0.0031250388        0.0741277680
 C          3.0967492117        1.3460628539        0.2233506620
 C          4.2771295912        2.0747598968        0.2968949153
 C          4.1822310603        3.4483536222        0.4222015448
 C          2.9421435738        4.0982228828        0.4694009718
 C          1.7646598324        3.3948790748        0.3729174895
 C          1.8285758345        2.0032357985        0.2386345118
 C          0.8467188483        0.9959548310        0.0893757819
 C         -0.5625838718        1.0014333330        0.0419222792
 C         -1.2722614701       -0.2060114830       -0.0512469414
 C         -0.5404627969       -1.4046612996       -0.0934037640
 C          0.8672317383       -1.4487126106       -0.0712693459
 C          1.5405152681       -0.2471825101       -0.0012690391
 O         -1.1600071714       -2.6034731924       -0.1621118766
 C         -2.5167751885       -2.7279661924       -0.0903786583
 C         -2.9633070405       -4.0473274619       -0.0804873425
 C         -4.3151667384       -4.3226571318        0.0326880091
 C         -5.2122573951       -3.2670993287        0.1517671354
 C         -4.7659264006       -1.9604310968        0.1308318448
 C         -3.4098572506       -1.6245934804       -0.0200899450
 B         -2.7996141611       -0.2118107084       -0.0839143195
 C         -3.4212417241        1.1959039803       -0.1499862496
 C         -4.7738301666        1.5232945881       -0.3452510925
 C         -5.2298885326        2.8268438327       -0.3678027740
 C         -4.3476316104        3.8876482859       -0.2018115442
 C         -2.9987104459        3.6207030427       -0.0395843952
 C         -2.5438043701        2.3049666106       -0.0279203668
 O         -1.1871362106        2.1883820022        0.0956591377
 C          3.8674794963       -1.9102983360       -1.0645422794
 C          4.8576904281       -2.8671146465       -1.1691177664
 H          6.6718671066       -3.6491785781       -0.3405401414
 H          6.7441490396       -2.0023831530        1.4959866770
 H          4.9671478360       -0.3095351813        1.7103481064
 H          5.2387428715        1.5882580137        0.2447748997
 H          5.0859543605        4.0358961090        0.4824703027
 H          2.9196890538        5.1726877124        0.5736356618
 H          0.8062400634        3.8876750860        0.3938809870
 H          1.3712185945       -2.4015248924       -0.0954400107
 H         -2.2335376145       -4.8398950616       -0.1485686438
 H         -4.6619871767       -5.3441987991        0.0421815315
 H         -6.2679943739       -3.4721397593        0.2593298895
 H         -5.4843596257       -1.1646644614        0.2430797240
 H         -5.4812344899        0.7241454258       -0.4973656983
 H         -6.2823156799        3.0243740522       -0.5147677217
 H         -4.7021465750        4.9065751060       -0.2106074573
 H         -2.2801923030        4.4188221527        0.0703984064
 H          3.0697201936       -1.8638968507       -1.7905489097
 H          4.8229253438       -3.5848909242       -1.9752236769
  52
  -85.6794511300000       8.804863879027251E-002 !
 C          5.8878755914       -2.8404834972       -0.6521310284
 C          4.7623951489       -2.7794047364       -1.4602671916
 C          3.7733350619       -1.8498243204       -1.2092211403
 C          3.9003650615       -0.9676845035       -0.1354914593
 N          2.9056425574       -0.0103693548        0.0957235180
 C          3.0971965706        1.3386205913        0.2555203603
 C          4.2753486921        2.0699514085        0.3316807394
 C          4.1781342776        3.4400095606        0.4939251773
 C          2.9372883339        4.0854301616        0.5716957543
 C          1.7612161459        3.3819487961        0.4638552680
 C          1.8278886653        1.9941096343        0.2926940758
 C          0.8452721841        0.9899127171        0.1374269041
 C         -0.5634341540        0.9963887345        0.0702539163
 C         -1.2709489936       -0.2143941866        0.0255955735
 C         -0.5430097086       -1.4160857053        0.0382731401
 C          0.8654649270       -1.4585974590        0.0260797457
 C          1.5375102239       -0.2546461728        0.0464470142
 O         -1.1683384819       -2.6143809307        0.0494670076
 C         -2.5231950701       -2.7263040395        0.1747303905
 C         -2.9756703036       -4.0356545661        0.3185622785
 C         -4.3252570606       -4.2880903916        0.4967585380
 C         -5.2153434175       -3.2207916542        0.5413708651
 C         -4.7643112882       -1.9248067451        0.3863130859
 C         -3.4109854838       -1.6173003872        0.1691560111
 B         -2.7968657666       -0.2190173574       -0.0203642820
 C         -3.4108462569        1.1756565757       -0.2338972949
 C         -4.7483580379        1.4769773839       -0.5410883205
 C         -5.1943749333        2.7705892748       -0.7272102274
 C         -4.3172404518        3.8433585809       -0.6170509938
 C         -2.9827538264        3.5978190994       -0.3414748046
 C         -2.5358056045        2.2908128092       -0.1692531155
 O         -1.1888230366        2.1840936861        0.0452032690
 C          5.0248264175       -1.0410362010        0.6856491193
 C          6.0118637216       -1.9705454666        0.4202461747
 H          6.6628495477       -3.5630573347       -0.8566724315
 H          4.6607028565       -3.4535104704       -2.2977804153
 H          2.9085691894       -1.7814647595       -1.8521460762
 H          5.2388036044        1.5905023119        0.2579002005
 H          5.0812190293        4.0275886415        0.5625371482
 H          2.9133963183        5.1560154533        0.7098833194
 H          0.8010790757        3.8699754139        0.5081425873
 H          1.3716877430       -2.4106393825        0.0188767144
 H         -2.2531198535       -4.8374127991        0.3034037374
 H         -4.6757515530       -5.3018692554        0.6138829327
 H         -6.2681842816       -3.4084927974        0.6976061644
 H         -5.4728560954       -1.1138326646        0.4438440855
 H         -5.4462627834        0.6624051488       -0.6533975251
 H         -6.2338129813        2.9520085743       -0.9613016025
 H         -4.6646952544        4.8553432001       -0.7563862536
 H         -2.2688202843        4.4044330910       -0.2703773377
 H          5.1074655618       -0.3824037068        1.5368959674
 H          6.8811400075       -2.0225005075        1.0589715843
  52
  -85.6793443800000       7.864366472089472E-002 !
 C          5.8997197990       -2.8534815805       -0.5544398018
 C          4.9087614951       -3.0969502471        0.3838744776
 C          3.9196179886       -2.1607368103        0.6173988815
 C          3.9101782190       -0.9665728877       -0.1015825230
 N          2.9022466132       -0.0157988124        0.1007834543
 C          3.0932357777        1.3349066100        0.2388598878
 C          4.2729417966        2.0502125462        0.3998635599
 C          4.1799750537        3.4182932669        0.5778302462
 C          2.9419993095        4.0743162401        0.5959652400
 C          1.7641570891        3.3793878478        0.4551893058
 C          1.8260307514        1.9913823910        0.2830125302
 C          0.8430951374        0.9825510302        0.1616678071
 C         -0.5653329090        0.9941379263        0.0914447444
 C         -1.2767906638       -0.2125890332        0.0201333813
 C         -0.5521862833       -1.4148626777       -0.0132481103
 C          0.8564222284       -1.4607940310       -0.0289180102
 C          1.5335759469       -0.2642066570        0.0759117309
 O         -1.1800063083       -2.6112697678       -0.0516653246
 C         -2.5346724242       -2.7250124644        0.0762167964
 C         -2.9892373751       -4.0370523532        0.1828933647
 C         -4.3383750505       -4.2917824368        0.3618871215
 C         -5.2260073959       -3.2242771846        0.4429523322
 C         -4.7733071933       -1.9253212467        0.3236682743
 C         -3.4198973995       -1.6140898304        0.1109726597
 B         -2.8027053282       -0.2125862226       -0.0334314632
 C         -3.4105544108        1.1873588856       -0.2254514017
 C         -4.7446971382        1.4968005324       -0.5394927448
 C         -5.1864001740        2.7946044110       -0.7055267252
 C         -4.3078845050        3.8632088046       -0.5683669667
 C         -2.9757998994        3.6097270533       -0.2878664398
 C         -2.5326634565        2.2988777449       -0.1364800077
 O         -1.1872133783        2.1846447821        0.0837639859
 C          4.9090839191       -0.7228986835       -1.0445900938
 C          5.8978686768       -1.6612937039       -1.2627289646
 H          6.6696244504       -3.5881904303       -0.7333818338
 H          4.9113766997       -4.0206854855        0.9432275468
 H          3.1648201468       -2.3373775076        1.3685277649
 H          5.2306468714        1.5528813477        0.4082984719
 H          5.0824042177        3.9951222985        0.7134685302
 H          2.9212926763        5.1447659683        0.7359137172
 H          0.8064810659        3.8731173563        0.4864219208
 H          1.3541575315       -2.4115067843       -0.1293743112
 H         -2.2688138406       -4.8396755439        0.1389710072
 H         -4.6906444435       -5.3078280197        0.4504421511
 H         -6.2785592979       -3.4147750719        0.5978570471
 H         -5.4794942040       -1.1146514901        0.4082724776
 H         -5.4429408663        0.6854696989       -0.6715046033
 H         -6.2241876327        2.9829043177       -0.9419845888
 H         -4.6522241849        4.8783775089       -0.6912940112
 H         -2.2607110445        4.4134733362       -0.1986623484
 H          4.8858295509        0.1926547624       -1.6166689788
 H          6.6644532801       -1.4677236890       -1.9983757506
  52
  -85.6791895300000       6.675743018911857E-002 !
 C          5.8706351121       -2.8627204165        0.6260732648
 C          5.8219000887       -1.7026882353        1.3843224295
 C          4.8453786620       -0.7562803712        1.1468899521
 C          3.9057839551       -0.9605267398        0.1363759009
 N          2.9050116076       -0.0045106329       -0.0798069386
 C          3.0955313513        1.3517046897       -0.1410974530
 C          4.2779716572        2.0757915338       -0.2217226547
 C          4.1868654990        3.4512996482       -0.3299236145
 C          2.9478321812        4.1053176321       -0.3581177202
 C          1.7679615498        3.4024280566       -0.2953042657
 C          1.8281302417        2.0073898787       -0.1929044676
 C          0.8454349005        0.9919043477       -0.1500210939
 C         -0.5642325402        0.9967254565       -0.1047603386
 C         -1.2733903067       -0.2133802325       -0.0973430379
 C         -0.5462997322       -1.4144829294       -0.1132937122
 C          0.8621381662       -1.4580266207       -0.0775583565
 C          1.5371066356       -0.2560981748       -0.1067952923
 O         -1.1705873080       -2.6125479165       -0.1383838885
 C         -2.5254608460       -2.7245049922       -0.2642735198
 C         -2.9769186357       -4.0322977458       -0.4235127282
 C         -4.3269092092       -4.2840425939       -0.5994498692
 C         -5.2185710941       -3.2169422480       -0.6256070702
 C         -4.7685201294       -1.9225786638       -0.4572955478
 C         -3.4139309593       -1.6155921934       -0.2451198943
 B         -2.7995720233       -0.2198650785       -0.0458916700
 C         -3.4101100808        1.1682474847        0.2141154802
 C         -4.7432564664        1.4588118285        0.5491573476
 C         -5.1872450049        2.7461165429        0.7793241093
 C         -4.3124989774        3.8225285976        0.6873622269
 C         -2.9811528863        3.5862001444        0.3889040830
 C         -2.5351790881        2.2849569619        0.1755447106
 O         -1.1896263757        2.1846248715       -0.0501363241
 C          3.9625408621       -2.1215628950       -0.6322853906
 C          4.9397652643       -3.0657651763       -0.3807237418
 H          6.6304005738       -3.6042123968        0.8198395254
 H          6.5420672289       -1.5404165508        2.1724685961
 H          4.7859242105        0.1354413399        1.7529657243
 H          5.2367084691        1.5802452639       -0.2199928819
 H          5.0914861319        4.0360567301       -0.4023110659
 H          2.9285534742        5.1816074690       -0.4425527466
 H          0.8104557468        3.8960401889       -0.3333518914
 H          1.3615531950       -2.4111965083       -0.0165846304
 H         -2.2537103360       -4.8336125590       -0.4190580577
 H         -4.6771563614       -5.2967129091       -0.7264424143
 H         -6.2720454799       -3.4043680158       -0.7778840972
 H         -5.4780111745       -1.1115378243       -0.5018176847
 H         -5.4388836774        0.6403526841        0.6464054865
 H         -6.2241986189        2.9199786986        1.0298510106
 H         -4.6588935666        4.8299361618        0.8588676104
 H         -2.2683754080        4.3951208275        0.3347189310
 H          3.2529851487       -2.2670307609       -1.4325527934
 H          4.9791233143       -3.9647569476       -0.9776534486
