  80
       -125.46365751
 C          7.9800359874       -4.7679225313        0.1226160293
 C          6.5931581815       -4.7909219328        0.0846065003
 C          5.8798813737       -3.6108225277        0.0454857811
 C          6.5501212320       -2.3860172603        0.0436662141
 C          5.8025049632       -1.1367927686        0.0052890517
 N          6.4969942272        0.0201870259        0.0020215859
 C          5.7747810952        1.1572890758       -0.0315800551
 C          6.4906603823        2.4267989317       -0.0315282698
 C          5.7884953531        3.6326499834       -0.0673778714
 C          6.4703173292        4.8319117912       -0.0636645034
 C          7.8570166316        4.8464370136       -0.0245258995
 C          8.5602721099        3.6521017835        0.0105610196
 C          7.8851659500        2.4479886635        0.0071189330
 N          4.4683674680        1.1668662176       -0.0628233221
 C          3.8016827837       -0.0147476433       -0.0528265664
 C          2.3848752474       -0.0298313828       -0.0678335317
 C          1.6501140088        1.1757899052       -0.0848207865
 C          0.2799043193        1.1612741332       -0.0811880265
 C         -0.4092507099       -0.0546813695       -0.0627628570
 N         -1.8335464703       -0.0630144988       -0.0399459934
 C         -2.4813118601        0.1421273405        1.1605223092
 C         -1.7402142803        0.3112119615        2.3381079196
 C         -2.3732968205        0.5214130123        3.5429088296
 C         -3.7586418234        0.5651957238        3.6072386454
 C         -4.4982319760        0.3881633550        2.4529630095
 C         -3.8806270274        0.1741668099        1.2298814600
 C         -4.7361800970       -0.0196673208        0.0060255098
 C         -5.7462451190       -1.1306040568        0.2325919269
 C         -5.5010869680       -2.4636440798        0.4744645660
 C         -6.5850788671       -3.3119040755        0.6588228489
 C         -7.8829736897       -2.8276252478        0.6010773302
 C         -8.1326681313       -1.4863528166        0.3576254492
 C         -7.0559693087       -0.6350869548        0.1726130838
 C         -6.9981467603        0.7945014243       -0.0931669204
 C         -8.0022908425        1.7364827808       -0.2431417359
 C         -7.6452935902        3.0517545545       -0.4943984669
 C         -6.3129119724        3.4217871155       -0.5946621337
 C         -5.3012167420        2.4822675106       -0.4452536418
 C         -5.6532041861        1.1749863771       -0.1952399514
 C         -3.9262442890       -0.2753635537       -1.2371046264
 C         -4.5885549261       -0.4986571979       -2.4348036738
 C         -3.8915349708       -0.7164475594       -3.6085129104
 C         -2.5041712129       -0.7025922744       -3.5905457430
 C         -1.8269170265       -0.4826321665       -2.4117227955
 C         -2.5247886744       -0.2741126998       -1.2143471298
 C          0.3013526242       -1.2583641998       -0.0545996007
 C          1.6718739132       -1.2485185573       -0.0577393867
 N          4.4963870876       -1.1775896977       -0.0188651633
 C          7.9452537322       -2.3697093043        0.0815474634
 C          8.6517469254       -3.5548524879        0.1209301904
 H          8.5353959354       -5.6939399177        0.1535993177
 H          6.0703255364       -5.7365642764        0.0857446020
 H          4.8011523843       -3.6127748582        0.0161221373
 H          4.7101593476        3.6052125260       -0.0977031914
 H          5.9228689727        5.7630896977       -0.0912769684
 H          8.3875975372        5.7873727229       -0.0210261846
 H          9.6402115061        3.6638658754        0.0410373867
 H          8.4175231397        1.5100372834        0.0344840550
 H          2.1955100441        2.1062287336       -0.0992237496
 H         -0.2837816470        2.0834065131       -0.0913083399
 H         -0.6632763363        0.2718598120        2.2940493858
 H         -1.7838163594        0.6501829138        4.4378929315
 H         -4.2570337286        0.7315636143        4.5495087902
 H         -5.5773870011        0.4141696818        2.4936978155
 H         -4.4899134635       -2.8411771981        0.5207358299
 H         -6.4146595789       -4.3609230505        0.8501877772
 H         -8.7105457999       -3.5059533004        0.7484118051
 H         -9.1452329466       -1.1137802553        0.3138204566
 H         -9.0413942686        1.4530559595       -0.1658692313
 H         -8.4151900458        3.7998433374       -0.6139371376
 H         -6.0583330869        4.4526142252       -0.7913464187
 H         -4.2632010556        2.7713107962       -0.5239380716
 H         -5.6688170973       -0.4980420981       -2.4400341928
 H         -4.4243483034       -0.8897607077       -4.5304910055
 H         -1.9479063910       -0.8625318204       -4.5016425958
 H         -0.7484400990       -0.4665234312       -2.4030896038
 H         -0.2457826144       -2.1904010613       -0.0411085670
 H          2.2335331391       -2.1693183643       -0.0463319929
 H          8.4529854250       -1.4176532396        0.0800614409
 H          9.7316914969       -3.5373719370        0.1508588010
  80
       -125.46356016
 C          8.0910561809       -4.5351881420        1.0716398779
 C          6.7054077915       -4.6019090192        1.0441112792
 C          5.9609474249       -3.4733076751        0.7690744509
 C          6.5987472221       -2.2577326436        0.5162971595
 C          5.8197673116       -1.0598716696        0.2303294698
 N          6.4870999726        0.0841927509       -0.0189625897
 C          5.7397270481        1.1786415507       -0.2694515687
 C          6.4313520394        2.4288082036       -0.5532417539
 C          5.7088975483        3.5908330279       -0.8301774484
 C          6.3714992498        4.7699079099       -1.1023295882
 C          7.7585686773        4.8078520358       -1.1025753548
 C          8.4819386180        3.6571756377       -0.8280876892
 C          7.8263795496        2.4736879097       -0.5547575753
 N          4.4329710313        1.1585684298       -0.2650109242
 C          3.7941461293       -0.0119159505       -0.0197384806
 C          2.3779919523       -0.0617237536       -0.0167063989
 C          1.6116231081        1.1019345469       -0.2466062702
 C          0.2423783124        1.0521340962       -0.2382378848
 C         -0.4166909945       -0.1587063034       -0.0037034343
 N         -1.8391837642       -0.1990728498        0.0008098874
 C         -2.5095515922       -0.3172944733        1.2016132722
 C         -1.7941433797       -0.4364583185        2.4009649919
 C         -2.4527810938       -0.5790972295        3.6021689347
 C         -3.8393346270       -0.5986519789        3.6424660652
 C         -4.5542284127       -0.4539508210        2.4682365728
 C         -3.9107835240       -0.3099612898        1.2483427397
 C         -4.7387953400       -0.0930276310        0.0096604218
 C         -5.8692718851       -1.1002438003       -0.0839413317
 C         -5.7787448685       -2.4684019169       -0.2098033326
 C         -6.9539860607       -3.2051501141       -0.2793771851
 C         -8.1892470094       -2.5779368077       -0.2243604722
 C         -8.2838036429       -1.2010339438       -0.0980081737
 C         -7.1155118328       -0.4606419420       -0.0274134821
 C         -6.8948460588        0.9715189028        0.1052528587
 C         -7.7858597985        2.0273374123        0.2022398754
 C         -7.2808544944        3.3122505206        0.3223540234
 C         -5.9136798537        3.5413330831        0.3458351692
 C         -5.0148336426        2.4871412724        0.2494372419
 C         -5.5142896086        1.2098953589        0.1294356457
 C         -3.9113703193       -0.0889697000       -1.2480051695
 C         -4.5531975112       -0.0180283281       -2.4751935281
 C         -3.8374371043       -0.0031480905       -3.6576632798
 C         -2.4521187063       -0.0683477998       -3.6166369357
 C         -1.7952820534       -0.1362322650       -2.4080464688
 C         -2.5113584496       -0.1353208670       -1.2031292129
 C          0.3265193166       -1.3223482893        0.2194126077
 C          1.6960029130       -1.2763969089        0.2160606019
 N          4.5148574694       -1.1348713768        0.2247528357
 C          7.9927507343       -2.1972796259        0.5447249081
 C          8.7305878941       -3.3306465819        0.8212503121
 H          8.6707840864       -5.4207454743        1.2878314576
 H          6.2079409911       -5.5410372815        1.2393114893
 H          4.8826193218       -3.5093264114        0.7452458938
 H          4.6305530844        3.5454985088       -0.8279714446
 H          5.8084731484        5.6669266063       -1.3177127800
 H          8.2739441102        5.7326863562       -1.3169949516
 H          9.5619392303        3.6870009691       -0.8288300079
 H          8.3743896234        1.5694655510       -0.3402058390
 H          2.1320969942        2.0302558019       -0.4219673727
 H         -0.3444364229        1.9436147067       -0.4093237190
 H         -0.7162908469       -0.4117274469        2.3787728583
 H         -1.8816584130       -0.6732917439        4.5132504414
 H         -4.3577635173       -0.7136711612        4.5816037042
 H         -5.6341943920       -0.4468968737        2.4911193949
 H         -4.8164757388       -2.9576388395       -0.2530143142
 H         -6.9045622310       -4.2793783593       -0.3778913793
 H         -9.0899795965       -3.1714535291       -0.2808307916
 H         -9.2479104498       -0.7168459084       -0.0549973488
 H         -8.8515666223        1.8541053394        0.1844520846
 H         -7.9611943123        4.1477386184        0.3990719399
 H         -5.5428464777        4.5510088238        0.4413480762
 H         -3.9496441908        2.6665855248        0.2692382144
 H         -5.6323962301        0.0248143142       -2.4965930422
 H         -4.3542886717        0.0542948323       -4.6029198303
 H         -1.8811644454       -0.0687405780       -4.5326702243
 H         -0.7188226409       -0.1973535425       -2.3823968449
 H         -0.1955102871       -2.2533173291        0.3902731462
 H          2.2813422040       -2.1661800481        0.3860751917
 H          8.4749319889       -1.2523761470        0.3475383401
 H          9.8098239752       -3.2792340620        0.8416322460
  80
       -125.46347874
 C          8.0802735500       -4.5091490238        1.1842360579
 C          6.6939136075       -4.5647918529        1.1857754120
 C          5.9535658742       -3.4403889620        0.8842861153
 C          6.5959612662       -2.2401192190        0.5755958850
 C          5.8195929178       -1.0474147410        0.2625777680
 N          6.4881844383        0.0893453000       -0.0173023946
 C          5.7408413646        1.1774992403       -0.2924449598
 C          6.4318740814        2.4178844084       -0.6192755751
 C          5.7081840238        3.5638623810       -0.9536580881
 C          6.3692730113        4.7325081692       -1.2709443206
 C          7.7561111015        4.7759124557       -1.2590826539
 C          8.4807023014        3.6413534013       -0.9267777810
 C          7.8265567972        2.4681144231       -0.6087508092
 N          4.4340954567        1.1612774371       -0.2780525810
 C          3.7944322705       -0.0024656959       -0.0037253949
 C          2.3784989697       -0.0520557542        0.0032407670
 C          1.6107700333        1.1107031816       -0.2271142783
 C          0.2416502743        1.0592313768       -0.2189243433
 C         -0.4163716828       -0.1528377917        0.0133876435
 N         -1.8381980286       -0.1967314042        0.0107587438
 C         -2.5144243884       -0.3583087557        1.2034584680
 C         -1.8055502058       -0.5073307622        2.4034004597
 C         -2.4700673006       -0.6998482673        3.5943715442
 C         -3.8563982829       -0.7404315652        3.6241282775
 C         -4.5654578440       -0.5612906398        2.4510983557
 C         -3.9160128893       -0.3657646817        1.2416509381
 C         -4.7378628324       -0.1025646106        0.0080388668
 C         -5.8738969239       -1.0982590088       -0.1279209642
 C         -5.7914696462       -2.4615385883       -0.3031631664
 C         -6.9710091309       -3.1872879876       -0.4071285898
 C         -8.2025370315       -2.5542928360       -0.3366345630
 C         -8.2890328619       -1.1822834275       -0.1609038364
 C         -7.1164175303       -0.4528273878       -0.0564357961
 C         -6.8875628547        0.9721978215        0.1291040854
 C         -7.7723720876        2.0298454246        0.2575724258
 C         -7.2598998030        3.3059945001        0.4288719182
 C         -5.8915277267        3.5245808542        0.4721665087
 C         -4.9988325182        2.4685869105        0.3434334450
 C         -5.5057456441        1.2002658737        0.1718177444
 C         -3.9046394803       -0.0564922009       -1.2449743449
 C         -4.5410161894        0.0522059843       -2.4722494769
 C         -3.8199075273        0.1054746184       -3.6503222685
 C         -2.4348788234        0.0381059060       -3.6049501846
 C         -1.7835503057       -0.0668700832       -2.3960588110
 C         -2.5047724585       -0.1007268644       -1.1945628475
 C          0.3285914111       -1.3154001929        0.2377872204
 C          1.6978303030       -1.2672250052        0.2376148948
 N          4.5147904881       -1.1204403370        0.2621606861
 C          7.9905645813       -2.1907725845        0.5748354092
 C          8.7242905205       -3.3200297744        0.8779488642
 H          8.6569649319       -5.3911900936        1.4217354781
 H          6.1924020059       -5.4915394247        1.4249785743
 H          4.8748230966       -3.4676172644        0.8825399533
 H          4.6305486113        3.5144772007       -0.9592738635
 H          5.8056192208        5.6170133538       -1.5298819934
 H          8.2705335879        5.6924666721       -1.5087272159
 H          9.5607662085        3.6753860744       -0.9169648756
 H          8.3756060945        1.5763800901       -0.3495691390
 H          2.1300522478        2.0398530848       -0.4014527504
 H         -0.3460512290        1.9502992401       -0.3893029609
 H         -0.7281123342       -0.4662272280        2.3902532334
 H         -1.9037571160       -0.8162238820        4.5059194342
 H         -4.3792973206       -0.8964558846        4.5548237754
 H         -5.6455469730       -0.5670473671        2.4669547835
 H         -4.8321589178       -2.9551872426       -0.3588776544
 H         -6.9279851520       -4.2574623085       -0.5447238482
 H         -9.1067042847       -3.1393082486       -0.4203169923
 H         -9.2503677280       -0.6934669013       -0.1074315397
 H         -8.8389993636        1.8645874991        0.2260459908
 H         -7.9352681457        4.1426326723        0.5317494682
 H         -5.5147803988        4.5273609811        0.6082919784
 H         -3.9326606706        2.6400047652        0.3778052390
 H         -5.6200950406        0.0947292182       -2.4972124679
 H         -4.3323412985        0.1925325439       -4.5957365898
 H         -1.8596613214        0.0650921534       -4.5179343495
 H         -0.7072772330       -0.1299381979       -2.3682507500
 H         -0.1921408237       -2.2476731459        0.4055220135
 H          2.2840659900       -2.1562851943        0.4082197797
 H          8.4765853912       -1.2579853976        0.3342342303
 H          9.8040130736       -3.2773013533        0.8761529608
  80
       -125.46339884
 C          8.2027235751       -4.4290806932        1.0108711370
 C          6.8194236172       -4.5111362105        1.0840940632
 C          6.0433280988       -3.4000973336        0.8261047157
 C          6.6463553195       -2.1863523022        0.4914141185
 C          5.8324519839       -1.0087889334        0.2194268354
 N          6.4650604249        0.1564428804       -0.0259325305
 C          5.6831440404        1.2290689863       -0.2633744312
 C          6.3323747929        2.5065828763       -0.5271918723
 C          5.5699513985        3.6417550206       -0.8080137375
 C          6.1901566103        4.8487030045       -1.0566790828
 C          7.5742864245        4.9414791634       -1.0285880167
 C          8.3372146879        3.8176852990       -0.7499888425
 C          7.7240958398        2.6062803122       -0.5008013681
 N          4.3777806603        1.1683369072       -0.2615736919
 C          3.7748495679       -0.0227073175       -0.0228801875
 C          2.3612050307       -0.1160011814       -0.0255018834
 C          1.5617408391        1.0233458320       -0.2636167250
 C          0.1946900909        0.9332292984       -0.2586651244
 C         -0.4291418448       -0.2946212877       -0.0173065826
 N         -1.8500520582       -0.3683215223       -0.0116413644
 C         -2.5208767829       -0.4954437194        1.1880281869
 C         -1.8085704967       -0.6463410207        2.3851610721
 C         -2.4712646142       -0.8055683312        3.5822032150
 C         -3.8578166814       -0.8115977762        3.6194945196
 C         -4.5696250714       -0.6312383634        2.4480088875
 C         -3.9223458835       -0.4690470665        1.2328497869
 C         -4.7351003187       -0.1745843717       -0.0005900847
 C         -5.9876497906       -1.0237782740       -0.0711201319
 C         -6.0801354183       -2.3924452519       -0.1925795051
 C         -7.3429277567       -2.9687659214       -0.2380475566
 C         -8.4840988647       -2.1849372669       -0.1629361626
 C         -8.3949075785       -0.8072411576       -0.0413313344
 C         -7.1385121443       -0.2263164166        0.0042753434
 C         -6.7302044736        1.1649229620        0.1257372584
 C         -7.4731637891        2.3283103884        0.2373677696
 C         -6.8022385375        3.5360647059        0.3442128889
 C         -5.4167239299        3.5846331537        0.3395716221
 C         -4.6657317995        2.4219992100        0.2280898610
 C         -5.3305131960        1.2213372950        0.1216636158
 C         -3.9209627380       -0.2735038408       -1.2628167060
 C         -4.5629838466       -0.2498797505       -2.4913609666
 C         -3.8473844823       -0.3018946891       -3.6733305211
 C         -2.4629838461       -0.3815741016       -3.6304386420
 C         -1.8057293347       -0.4028696870       -2.4201732671
 C         -2.5216282101       -0.3404548293       -1.2172947462
 C          0.3471663955       -1.4356561393        0.2096892983
 C          1.7147861175       -1.3497641719        0.2082264431
 N          4.5305138198       -1.1222054457        0.2201562759
 C          8.0380984816       -2.1099208543        0.4206427563
 C          8.8077219048       -3.2265766921        0.6780813337
 H          8.8073194711       -5.3011882804        1.2128383950
 H          6.3487989586       -5.4481578170        1.3450329314
 H          4.9666854085       -3.4480808127        0.8799922636
 H          4.4945435546        3.5539166992       -0.8267128977
 H          5.5962600805        5.7247931787       -1.2742096067
 H          8.0565386029        5.8882091949       -1.2235057444
 H          9.4149914626        3.8904795136       -0.7276019960
 H          8.3033409720        1.7228570378       -0.2812232769
 H          2.0553190117        1.9654587991       -0.4429447121
 H         -0.4173469934        1.8061341037       -0.4370549759
 H         -0.7305283104       -0.6334668400        2.3652809610
 H         -1.9030618890       -0.9230951020        4.4924138293
 H         -4.3791831274       -0.9402704819        4.5551506153
 H         -5.6492629123       -0.6075362049        2.4711345589
 H         -5.1912424849       -3.0035099994       -0.2515586492
 H         -7.4367904643       -4.0404065950       -0.3328867735
 H         -9.4557797221       -2.6552316451       -0.2000049668
 H         -9.2863123172       -0.2006412953        0.0165814795
 H         -8.5524278889        2.2958657293        0.2428119794
 H         -7.3657826346        4.4530697148        0.4338807622
 H         -4.9151230328        4.5371059615        0.4249691588
 H         -3.5860867595        2.4611138451        0.2278996603
 H         -5.6410843811       -0.1883134119       -2.5154696605
 H         -4.3644323844       -0.2821652978       -4.6200425228
 H         -1.8932599253       -0.4302417717       -4.5459422612
 H         -0.7299306193       -0.4751439496       -2.3908075386
 H         -0.1476721251       -2.3813350135        0.3808708820
 H          2.3256315047       -2.2221185010        0.3794723595
 H          8.4932708395       -1.1671353729        0.1598624849
 H          9.8849091968       -3.1635627888        0.6191778375
  80
       -125.46325341
 C          8.2596379619       -4.3300193908        1.0998444627
 C          8.8444191421       -3.1166533727        0.7710914302
 C          8.0555745386       -2.0214904664        0.4820290086
 C          6.6648299023       -2.1304652783        0.5174300422
 C          5.8312295591       -0.9731330075        0.2187116957
 N          6.4440794426        0.1995402984       -0.0399278025
 C          5.6442057229        1.2554417882       -0.2932302135
 C          6.2729471591        2.5394535449       -0.5742307129
 C          5.4925747096        3.6660732484       -0.8396664641
 C          6.0945740414        4.8790471978       -1.1036720842
 C          7.4779431592        4.9862118309       -1.1072461349
 C          8.2586673835        3.8706802605       -0.8450745304
 C          7.6638286586        2.6536223071       -0.5798210037
 N          4.3401695804        1.1727067996       -0.2905321143
 C          3.7575753709       -0.0262110222       -0.0410866699
 C          2.3458159549       -0.1434231385       -0.0410751368
 C          1.5266090239        0.9823769698       -0.2767205525
 C          0.1614522801        0.8692581832       -0.2654800944
 C         -0.4409494825       -0.3688608079       -0.0211569201
 N         -1.8601290415       -0.4623591399       -0.0124321206
 C         -2.5296444751       -0.6259162440        1.1839402903
 C         -1.8187846822       -0.8279885095        2.3739987526
 C         -2.4834972816       -1.0301498558        3.5637172283
 C         -3.8698759564       -1.0279058982        3.6004153657
 C         -4.5803092619       -0.7925243811        2.4374801292
 C         -3.9312344562       -0.5872430926        1.2301633783
 C         -4.7332735738       -0.2202655803        0.0092402578
 C         -6.0449632109       -0.9720151151       -0.0673151479
 C         -6.2397586405       -2.3286011788       -0.2054002972
 C         -7.5420879962       -2.8081902270       -0.2571656290
 C         -8.6213906927       -1.9418574640       -0.1720923906
 C         -8.4293707536       -0.5762540482       -0.0333153731
 C         -7.1330288548       -0.0915234680        0.0188769061
 C         -6.6218734056        1.2638013557        0.1565374642
 C         -7.2755597272        2.4786513916        0.2792884239
 C         -6.5161659531        3.6318021041        0.3978917694
 C         -5.1308984591        3.5763548913        0.3952345102
 C         -4.4691193357        2.3616502346        0.2729522546
 C         -5.2219494325        1.2154075415        0.1536611195
 C         -3.9323361262       -0.3486112569       -1.2590860616
 C         -4.5777998130       -0.3247931599       -2.4854609329
 C         -3.8652052199       -0.3855720061       -3.6690895011
 C         -2.4812799948       -0.4718190897       -3.6300112364
 C         -1.8206798667       -0.4948767981       -2.4214818475
 C         -2.5334270874       -0.4265180436       -1.2173855522
 C          0.3553605289       -1.4974503181        0.1996888475
 C          1.7212297583       -1.3883044193        0.1935622643
 N          4.5316237911       -1.1103477609        0.2133758594
 C          6.0821191445       -3.3548945469        0.8482201282
 C          6.8774725927       -4.4445156414        1.1375512475
 H          8.8791645165       -5.1850397121        1.3278648257
 H          9.9205428656       -3.0279353348        0.7425116150
 H          8.4944786250       -1.0700208338        0.2246242962
 H          4.4179974584        3.5673585779       -0.8333985422
 H          5.4869534804        5.7488279340       -1.3082695126
 H          7.9458194192        5.9376155809       -1.3145125653
 H          9.3359175795        3.9541235191       -0.8491129182
 H          8.2568509583        1.7759611456       -0.3742359109
 H          2.0038078265        1.9323664146       -0.4585691070
 H         -0.4658758082        1.7317880883       -0.4415285650
 H         -0.7407093658       -0.8213259266        2.3556629963
 H         -1.9165931848       -1.1882033488        4.4685725824
 H         -4.3925352665       -1.1904964329        4.5301202271
 H         -5.6595500321       -0.7582195649        2.4627340018
 H         -5.3987754039       -3.0033595546       -0.2718510766
 H         -7.7159507082       -3.8685246221       -0.3646775962
 H         -9.6255823541       -2.3375787979       -0.2143401475
 H         -9.2729757532        0.0944852139        0.0324934853
 H         -8.3542490400        2.5273451361        0.2827589178
 H         -7.0094914184        4.5878451483        0.4947078683
 H         -4.5592439557        4.4875906231        0.4902818715
 H         -3.3895412568        2.3204438130        0.2740361267
 H         -5.6553220184       -0.2541099884       -2.5077081346
 H         -4.3847274510       -0.3651981172       -4.6144433485
 H         -1.9144071160       -0.5244302344       -4.5470564206
 H         -0.7451799097       -0.5730573770       -2.3948335116
 H         -0.1228020811       -2.4522516650        0.3677946581
 H          2.3477378618       -2.2504600479        0.3600656671
 H          5.0058416724       -3.4283299161        0.8741634021
 H          6.4227732459       -5.3902483949        1.3941445756
  80
       -125.46306696
 C          8.3526307812       -4.2528595767        1.0480351281
 C          8.9028119902       -3.0022918863        0.8109980044
 C          8.0854124211       -1.9264430258        0.5288557771
 C          6.7004275678       -2.0916252330        0.4807456707
 C          5.8367098847       -0.9540893224        0.1922225612
 N          6.4187489494        0.2420183619       -0.0288822666
 C          5.5923505568        1.2797357558       -0.2701576017
 C          6.1834598750        2.5908833528       -0.5025224487
 C          7.5702089783        2.7460998957       -0.5138541611
 C          8.1266435984        3.9907236406       -0.7307499759
 C          7.3114913713        5.0932927437       -0.9369994003
 C          5.9318128528        4.9455834049       -0.9270465045
 C          5.3682800844        3.7047747876       -0.7124106494
 N          4.2917104775        1.1573588023       -0.2946641919
 C          3.7405292419       -0.0631000423       -0.0814667502
 C          2.3319458784       -0.2131284262       -0.0987930525
 C          1.4942316925        0.8972005429       -0.3430712102
 C          0.1314807251        0.7617952483       -0.3333037194
 C         -0.4512604280       -0.4839326520       -0.0798988559
 N         -1.8693842921       -0.5891157750       -0.0522263271
 C         -2.5247645721       -0.7212668156        1.1561289377
 C         -1.8029021935       -0.9365183141        2.3368317988
 C         -2.4563021031       -1.1076488230        3.5377278981
 C         -3.8411516968       -1.0609940342        3.5942046724
 C         -4.5612525416       -0.8128083769        2.4397964611
 C         -3.9237716968       -0.6382915338        1.2216615736
 C         -4.7259660579       -0.2481579385        0.0076240712
 C         -6.0878770595       -0.9067534008       -0.0238259100
 C         -6.3812095002       -2.2491760712       -0.1219880809
 C         -7.7148687294       -2.6365949379       -0.1297453385
 C         -8.7283805276       -1.6944674685       -0.0408909431
 C         -8.4374626032       -0.3429078904        0.0568952478
 C         -7.1093947222        0.0499875695        0.0649301459
 C         -6.5019756233        1.3688285716        0.1565456341
 C         -7.0665924090        2.6291548672        0.2611644784
 C         -6.2264522942        3.7288347774        0.3340863026
 C         -4.8488757465        3.5761442461        0.3045475485
 C         -4.2762659432        2.3154125762        0.2001994310
 C         -5.1093503330        1.2220951292        0.1258837356
 C         -3.9571037230       -0.4563030192       -1.2700396859
 C         -4.6211974464       -0.4569684037       -2.4864153182
 C         -3.9285147727       -0.5771181303       -3.6776006442
 C         -2.5466189069       -0.6962460586       -3.6569430259
 C         -1.8675563786       -0.6960617008       -2.4583313146
 C         -2.5601467319       -0.5714001950       -1.2473891352
 C          0.3633746141       -1.5992775653        0.1403051507
 C          1.7277980522       -1.4684541396        0.1326519507
 N          4.5417066790       -1.1298335567        0.1619960543
 C          6.1529734214       -3.3529148083        0.7204253470
 C          6.9766970700       -4.4234633564        1.0015837791
 H          8.9944472147       -5.0931854773        1.2691924163
 H          9.9743139828       -2.8693000433        0.8483967677
 H          8.4979153363       -0.9462685743        0.3433829132
 H          8.1909629717        1.8786778503       -0.3513421990
 H          9.2008955139        4.1063668871       -0.7389883425
 H          7.7499217980        6.0662509697       -1.1046733048
 H          5.2968472674        5.8047811521       -1.0867954704
 H          4.2974039740        3.5748152628       -0.7006406217
 H          1.9560796673        1.8539456112       -0.5291534976
 H         -0.5091355838        1.6133592582       -0.5150098788
 H         -0.7255832720       -0.9649200335        2.3024610572
 H         -1.8815833937       -1.2766560543        4.4356477622
 H         -4.3549821834       -1.1990437176        4.5327826050
 H         -5.6382344358       -0.7430579200        2.4811203012
 H         -5.5918220523       -2.9834327472       -0.1908467188
 H         -7.9652341559       -3.6843281036       -0.2054174842
 H         -9.7585750688       -2.0191618717       -0.0479164182
 H         -9.2297723863        0.3874022655        0.1258790543
 H         -8.1389127975        2.7533394710        0.2857314008
 H         -6.6496626454        4.7192169463        0.4159734967
 H         -4.2130868174        4.4470251993        0.3640263398
 H         -3.2024295304        2.1992228056        0.1806775497
 H         -5.6965549685       -0.3568990044       -2.4954844696
 H         -4.4622814398       -0.5753031751       -4.6152528798
 H         -1.9962096192       -0.7928462160       -4.5804203064
 H         -0.7937532930       -0.7989134757       -2.4433900417
 H         -0.0987266168       -2.5615247091        0.3111007242
 H          2.3676644277       -2.3202889410        0.3014940115
 H          5.0812740418       -3.4696896105        0.6815674453
 H          6.5484049816       -5.3983524891        1.1869915691
