  63
       -103.41261844
 C          3.6557417940        1.0369663354       -3.5054485688
 C          2.3138131521        1.1546857725       -3.2072557123
 C          1.7962766695        0.5702738162       -2.0612590328
 C          2.6200420894       -0.1308910155       -1.1913596663
 C          3.9767924152       -0.2663309186       -1.5143688824
 C          4.4860757431        0.3156893274       -2.6589328427
 O          4.8529040941       -0.9760373438       -0.7283503994
 C          4.3459592503       -1.5861004291        0.3942224192
 C          5.2245376748       -2.3269333567        1.1609488298
 C          4.7871172307       -2.9506755680        2.3214380936
 C          3.4702645031       -2.8191350545        2.7114238512
 C          2.5830617117       -2.0785722158        1.9447622945
 C          3.0017155042       -1.4644803931        0.7717513962
 N          2.1384053424       -0.7053835583       -0.0156639116
 C          0.7722353831       -0.5709670270        0.3397537779
 C         -0.0367998480       -1.6858793185        0.1427115437
 C         -1.4388110308       -1.6645535752        0.3330195628
 C         -2.4777938099       -2.5750763185       -0.1346745556
 C         -2.1663479075       -3.8912261306       -0.4829503461
 C         -3.1236358056       -4.7624717970       -0.9535825980
 C         -4.4366168523       -4.3332100455       -1.1009063044
 C         -4.7756604769       -3.0383790052       -0.7768486881
 C         -3.8329164695       -2.1306453588       -0.2873926290
 C         -4.2104090331       -0.7561640802        0.0205990052
 C         -5.3126371025        0.0329272150       -0.4279161271
 C         -5.3241742822        1.4084114676       -0.3460524659
 C         -4.2260780081        2.1492504163        0.1871357744
 C         -3.8260519991        3.5059905050       -0.0063409101
 C         -2.5323106692        3.9282460347        0.2089478256
 C         -1.4981876672        3.0497515717        0.6531791872
 C         -0.0477403685        3.1907978949        0.6400742582
 C          0.5386730336        4.4543398928        0.5355549658
 C          1.9049484593        4.6248842681        0.5440922197
 C          2.7342127439        3.5197261037        0.6784715380
 C          2.1900482757        2.2576961636        0.7685795851
 C          0.8098750805        2.0429594447        0.7265289347
 C          0.2487522723        0.6931410022        0.7568316516
 C         -1.0982173284        0.6506742147        1.0490048051
 C         -1.9385146452        1.7983959471        1.0097591316
 C         -3.2575194121        1.3609342066        0.7855085400
 C         -3.2523302840       -0.0440810459        0.7015876478
 C         -1.9092287897       -0.4804069620        0.8571228792
 H          4.0641552799        1.4936871201       -4.3932123568
 H          1.6539496500        1.7019380638       -3.8628335711
 H          0.7434757618        0.6605705345       -1.8418701440
 H          5.5363497352        0.1943491438       -2.8714082201
 H          6.2501530783       -2.4007508738        0.8364684106
 H          5.4808488303       -3.5271994674        2.9128456622
 H          3.1191146010       -3.2890483651        3.6171863538
 H          1.5572818606       -1.9713837416        2.2616998591
 H          0.4417663881       -2.5654972461       -0.2655387091
 H         -1.1494957470       -4.2337036272       -0.3594011395
 H         -2.8547874877       -5.7779537447       -1.2044498150
 H         -5.1907560964       -5.0147298287       -1.4659791556
 H         -5.8005647782       -2.7148692499       -0.8836434558
 H         -6.1380385805       -0.4509079039       -0.9310037675
 H         -6.1545035428        1.9458704191       -0.7834713279
 H         -4.5375767619        4.2073264071       -0.4204107836
 H         -2.2835406275        4.9479397021       -0.0492723874
 H         -0.1045382355        5.3195283143        0.4704434104
 H          2.3282784075        5.6153921123        0.4663397694
 H          3.8057327090        3.6465790456        0.7177159901
 H          2.8498855556        1.4170466623        0.9093781040
  63
       -103.41230264
 C          3.4898498806        0.4084673921       -3.8418110128
 C          2.1656118811        0.5941219371       -3.5025138080
 C          1.7048954596        0.2224271492       -2.2481198775
 C          2.5681774223       -0.3396645781       -1.3182357107
 C          3.9127627248       -0.5222957152       -1.6688311455
 C          4.3645432801       -0.1515774582       -2.9199594127
 O          4.8312498259       -1.0698507385       -0.8033743329
 C          4.3902586243       -1.4194317416        0.4516645387
 C          5.3192119411       -1.9413865199        1.3300078442
 C          4.9387518259       -2.3082143198        2.6144322004
 C          3.6277195377       -2.1469073720        3.0125803647
 C          2.6894153636       -1.6234415745        2.1353525864
 C          3.0554760740       -1.2582574568        0.8472548255
 N          2.1386634171       -0.7209283243       -0.0506822156
 C          0.7692315551       -0.5968977985        0.3092856363
 C         -0.0417972569       -1.6914076208        0.0354165557
 C         -1.4471819688       -1.6709390734        0.2117020843
 C         -2.4886271283       -2.5369241564       -0.3279338107
 C         -2.1813690018       -3.8217645889       -0.7819256427
 C         -3.1399437051       -4.6465592235       -1.3272666147
 C         -4.4506476251       -4.2008320848       -1.4438875296
 C         -4.7857709949       -2.9357343221       -1.0153477217
 C         -3.8411545048       -2.0751889001       -0.4498028459
 C         -4.2130648161       -0.7270825527       -0.0375072093
 C         -5.3126855592        0.0973117643       -0.4253896304
 C         -5.3191165084        1.4628212668       -0.2413802234
 C         -4.2177319459        2.1577203347        0.3439969285
 C         -3.8134162473        3.5237994056        0.2512058923
 C         -2.5173846795        3.9235999041        0.4926583536
 C         -1.4852885420        3.0098790108        0.8657875471
 C         -0.0346126499        3.1447791442        0.8443537220
 C          0.5545556434        4.4112108994        0.8180015748
 C          1.9211705768        4.5776981573        0.8051830271
 C          2.7481999069        3.4629888674        0.8273804395
 C          2.2012892102        2.1988460429        0.8407823813
 C          0.8192258433        1.9902671284        0.8336198695
 C          0.2523488870        0.6435406659        0.7971567357
 C         -1.0943482000        0.5872885947        1.0899835991
 C         -1.9298370850        1.7380304521        1.1329915770
 C         -3.2514365343        1.3236196669        0.8809148770
 C         -3.2521111338       -0.0713393578        0.6942112430
 C         -1.9107855893       -0.5241828619        0.8174178922
 H          3.8525451585        0.6942653608       -4.8166477716
 H          1.4755046352        1.0270059701       -4.2103259247
 H          0.6669832382        0.3667551743       -1.9888613486
 H          5.4053047999       -0.3059066612       -3.1560318100
 H          6.3372065002       -2.0547765142        0.9925330213
 H          5.6722853307       -2.7156611679        3.2921862077
 H          3.3212477616       -2.4252529048        4.0092511017
 H          1.6645973315       -1.4939975765        2.4486195065
 H          0.4369667539       -2.5474999995       -0.4196893399
 H         -1.1665325374       -4.1778651308       -0.6835187506
 H         -2.8744255939       -5.6393288820       -1.6592505018
 H         -5.2060996197       -4.8469068580       -1.8660990963
 H         -5.8086295884       -2.5996569704       -1.1001033187
 H         -6.1402037310       -0.3446752892       -0.9623000770
 H         -6.1485081917        2.0343798989       -0.6352097945
 H         -4.5231562675        4.2564271046       -0.1084112176
 H         -2.2651675249        4.9585701394        0.3096732146
 H         -0.0864723073        5.2803309545        0.8302767823
 H          2.3468474158        5.5701329644        0.7925355200
 H          3.8211623219        3.5833320367        0.8406265442
 H          2.8634003506        1.3503553281        0.8915449866
  63
       -103.41224880
 C          3.5459845471        1.3741324872       -3.2976811336
 C          2.1909842997        1.3438025452       -3.0390107772
 C          1.6990616359        0.6228866580       -1.9621599811
 C          2.5604279473       -0.0639805646       -1.1168744387
 C          3.9290440121       -0.0650392425       -1.4144455777
 C          4.4141390380        0.6533850997       -2.4903232915
 O          4.8409613247       -0.7704791425       -0.6676255735
 C          4.3547603532       -1.5412106335        0.3616821784
 C          5.2682171170       -2.3149294265        1.0515818712
 C          4.8584433015       -3.0912182822        2.1265218500
 C          3.5335138982       -3.0753821803        2.5114872369
 C          2.6112554754       -2.3039634432        1.8203318214
 C          3.0011645546       -1.5412620024        0.7270293713
 N          2.1031042010       -0.7552353696        0.0065820074
 C          0.7510232683       -0.6236894925        0.4050742223
 C         -0.0732210801       -1.7335753116        0.2398491831
 C         -1.4739586929       -1.6857559841        0.4269449801
 C         -2.5175404794       -2.6018197532       -0.0201091815
 C         -2.2248400182       -3.9421429910       -0.2806646030
 C         -3.1880017012       -4.8205391335       -0.7258411454
 C         -4.4859958371       -4.3737055542       -0.9384641728
 C         -4.8056824153       -3.0552232435       -0.7009346590
 C         -3.8576457837       -2.1405330057       -0.2356735405
 C         -4.2132943994       -0.7444387843       -0.0103307082
 C         -5.2792156306        0.0416934310       -0.5424162367
 C         -5.2628349453        1.4192439859       -0.5307006671
 C         -4.1702684198        2.1627131266        0.0093326915
 C         -3.7342368931        3.4980117300       -0.2437347413
 C         -2.4403021415        3.9049958718       -0.0033827392
 C         -1.4445481847        3.0320245889        0.5289915897
 C          0.0078040893        3.1474681130        0.5633256583
 C          0.6263688955        4.3915135277        0.4191889822
 C          1.9945876461        4.5338433705        0.4818810615
 C          2.7913373974        3.4228943321        0.7229301067
 C          2.2151725629        2.1786538514        0.8518587677
 C          0.8351725247        1.9899289520        0.7419009183
 C          0.2431881662        0.6542501256        0.7974493542
 C         -1.1102392290        0.6490323367        1.0617347870
 C         -1.9242257902        1.8111974790        0.9393225346
 C         -3.2435403482        1.3880817433        0.6878160894
 C         -3.2657800792       -0.0198178134        0.6729485584
 C         -1.9371951074       -0.4742160837        0.8942061822
 H          3.9347849796        1.9438086460       -4.1269890549
 H          1.5010855555        1.8811133913       -3.6714749900
 H          0.6363989096        0.5990473839       -1.7760320251
 H          5.4760995965        0.6408334481       -2.6775579700
 H          6.2990863387       -2.2909794486        0.7363907638
 H          5.5787548905       -3.6934844067        2.6572624324
 H          3.2030825800       -3.6615916708        3.3553069269
 H          1.5804903096       -2.2871843054        2.1385590311
 H          0.3871052044       -2.6262386787       -0.1608496193
 H         -1.2195404604       -4.2971427196       -0.1066555571
 H         -2.9353311597       -5.8549485186       -0.9063423861
 H         -5.2443472672       -5.0601928804       -1.2850559121
 H         -5.8199831804       -2.7179534830       -0.8557123840
 H         -6.0932356792       -0.4511106693       -1.0552788118
 H         -6.0614854664        1.9513962954       -1.0294607110
 H         -4.4142999562        4.1882601042       -0.7241879018
 H         -2.1576698565        4.9023624759       -0.3095494527
 H          0.0068797455        5.2653247633        0.2806385362
 H          2.4438307096        5.5093758745        0.3687758923
 H          3.8618101104        3.5313808946        0.8132306010
 H          2.8461677359        1.3336965785        1.0783134400
  63
       -103.41216488
 C          3.5311649115        0.1926602340       -3.9179640990
 C          2.1979502201        0.3692499711       -3.6106270281
 C          1.7243914150        0.0625148574       -2.3435221972
 C          2.5829360577       -0.4285464109       -1.3701625337
 C          3.9374180121       -0.5985941483       -1.6874185418
 C          4.4023920351       -0.2908367753       -2.9507292150
 O          4.8536168831       -1.0693360138       -0.7754419947
 C          4.4030446471       -1.3344529392        0.4967403001
 C          5.3319818657       -1.7621459743        1.4249070127
 C          4.9407530632       -2.0451489954        2.7271898851
 C          3.6186437980       -1.8971433284        3.0923809615
 C          2.6804220692       -1.4678339298        2.1652873539
 C          3.0581593636       -1.1826329473        0.8604370735
 N          2.1404218101       -0.7435624735       -0.0893897239
 C          0.7680262770       -0.6113176998        0.2552732284
 C         -0.0489187977       -1.6929341564       -0.0493104582
 C         -1.4536301648       -1.6730960019        0.1356547816
 C         -2.5042022041       -2.5183540865       -0.4187646532
 C         -2.2055209775       -3.7858276081       -0.9245332533
 C         -3.1739697068       -4.5907440317       -1.4820939825
 C         -4.4863019215       -4.1413042936       -1.5599287834
 C         -4.8132337920       -2.8923717771       -1.0805325369
 C         -3.8586523345       -2.0528511351       -0.5003567400
 C         -4.2236603200       -0.7215438956       -0.0312667545
 C         -5.3310727573        0.1153100055       -0.3662269910
 C         -5.3360398443        1.4725300146       -0.1279373099
 C         -4.2247667928        2.1460468090        0.4631986852
 C         -3.8243971676        3.5159661042        0.4182520084
 C         -2.5240646071        3.9079563830        0.6473875812
 C         -1.4823072720        2.9815002160        0.9591899351
 C         -0.0332706546        3.1183435588        0.9011517360
 C          0.5512035592        4.3873458733        0.8822384515
 C          1.9154697306        4.5602655659        0.8219245254
 C          2.7455710974        3.4481660883        0.7890118195
 C          2.2033224680        2.1820658390        0.7968631150
 C          0.8224979610        1.9662437871        0.8356103979
 C          0.2578132618        0.6191592595        0.7779298515
 C         -1.0848922463        0.5532301561        1.0866355692
 C         -1.9201854170        1.7000454271        1.1874580360
 C         -3.2466226808        1.2937338975        0.9469675267
 C         -3.2496138244       -0.0927288171        0.7067975780
 C         -1.9062553706       -0.5483812742        0.7884175490
 H          3.9040382807        0.4285355814       -4.9022610299
 H          1.5116629871        0.7476789405       -4.3526457143
 H          0.6808400475        0.2042469260       -2.1060352660
 H          5.4501517718       -0.4357328074       -3.1611791321
 H          6.3582979744       -1.8690583633        1.1116804291
 H          5.6743847710       -2.3789790055        3.4439958113
 H          3.3029424181       -2.1136033941        4.1014376460
 H          1.6464332732       -1.3519012529        2.4523647031
 H          0.4250055674       -2.5371585047       -0.5307736900
 H         -1.1893040774       -4.1451661614       -0.8571101230
 H         -2.9144305189       -5.5703467337       -1.8553957520
 H         -5.2489413176       -4.7710223852       -1.9938288994
 H         -5.8371654983       -2.5533423358       -1.1361196741
 H         -6.1679901562       -0.3067967252       -0.9045833603
 H         -6.1730108177        2.0576060543       -0.4841901635
 H         -4.5432959637        4.2616141276        0.1069735957
 H         -2.2778781992        4.9504356707        0.5030168418
 H         -0.0916003406        5.2534169719        0.9369494816
 H          2.3372008681        5.5543996226        0.8139045136
 H          3.8179994942        3.5715506360        0.7626131716
 H          2.8717394163        1.3377417116        0.8023154309
  63
       -103.41206183
 C          3.5026617131       -0.0209924135       -3.9767619973
 C          2.1953929556        0.2679809793       -3.6434638664
 C          1.7422675257        0.0685181828       -2.3478897758
 C          2.5955265215       -0.4242316414       -1.3705755142
 C          3.9252709541       -0.7032439515       -1.7133831031
 C          4.3689205258       -0.5065789371       -3.0064850266
 O          4.8378145649       -1.1747946367       -0.7986400894
 C          4.3866400663       -1.4191464473        0.4773202898
 C          5.2914136258       -1.9370499659        1.3834569437
 C          4.8999180895       -2.2025679654        2.6891141720
 C          3.6010213071       -1.9487472693        3.0794164062
 C          2.6868076738       -1.4312148198        2.1737611685
 C          3.0654595208       -1.1609292530        0.8659295867
 N          2.1727320352       -0.6249789400       -0.0593786866
 C          0.7936828426       -0.5206824039        0.2729468396
 C         -0.0007071843       -1.6175302428       -0.0379451844
 C         -1.4063759747       -1.6256190521        0.1388295679
 C         -2.4366995190       -2.4875680890       -0.4269363801
 C         -2.1073424448       -3.7403392713       -0.9503548089
 C         -3.0549928796       -4.5591128878       -1.5229226379
 C         -4.3776821712       -4.1399780020       -1.5956933330
 C         -4.7348429273       -2.9060910825       -1.0992304651
 C         -3.8010770282       -2.0515314082       -0.5069799881
 C         -4.1959592864       -0.7319326816       -0.0293667579
 C         -5.3213328100        0.0827543681       -0.3606588296
 C         -5.3537557284        1.4390557897       -0.1202797108
 C         -4.2555063916        2.1346130777        0.4706948690
 C         -3.8812705989        3.5116837932        0.4260798636
 C         -2.5896274875        3.9295262496        0.6611011575
 C         -1.5315525457        3.0242252370        0.9786049267
 C         -0.0846617676        3.1898015025        0.9330131047
 C          0.4765817105        4.4693167023        0.9375851970
 C          1.8382209785        4.6669132823        0.8924335177
 C          2.6890279242        3.5708870896        0.8431531124
 C          2.1700583207        2.2950471673        0.8263764108
 C          0.7932363582        2.0551870925        0.8601989835
 C          0.2560336466        0.6977257963        0.7937989168
 C         -1.0859135461        0.6037942885        1.0985377173
 C         -1.9445101956        1.7332255724        1.2000869388
 C         -3.2615120212        1.3009587862        0.9546312727
 C         -3.2359750023       -0.0848395618        0.7110635532
 C         -1.8839648645       -0.5131070797        0.7947354969
 H          3.8586040224        0.1282711781       -4.9840138470
 H          1.5137015201        0.6507185115       -4.3874852020
 H          0.7188964249        0.2965041913       -2.0905973920
 H          5.3965491359       -0.7387200333       -3.2364603884
 H          6.2992142549       -2.1271093665        1.0500942582
 H          5.6146955929       -2.6061280997        3.3889798631
 H          3.2852079344       -2.1511105535        4.0913654618
 H          1.6709924398       -1.2331491421        2.4804018879
 H          0.4921626137       -2.4523041977       -0.5172647946
 H         -1.0830111108       -4.0764204140       -0.8859119081
 H         -2.7713750187       -5.5262364845       -1.9110265635
 H         -5.1246477375       -4.7815403731       -2.0393617200
 H         -5.7665012615       -2.5909600069       -1.1516819242
 H         -6.1508768675       -0.3558108944       -0.8972597645
 H         -6.2034820686        2.0071168354       -0.4738287086
 H         -4.6127590081        4.2428618893        0.1097351605
 H         -2.3629994929        4.9763610211        0.5156713695
 H         -0.1823205535        5.3228006464        0.9995460292
 H          2.2419394147        5.6685254317        0.9059133174
 H          3.7589662867        3.7153952036        0.8229640144
 H          2.8496717510        1.4592607337        0.8122900263
  63
       -103.41206089
 C          3.5982247192        1.4174033834       -3.2711449180
 C          2.2443035046        1.4226329463       -3.0055931957
 C          1.7358686833        0.6952706174       -1.9407856991
 C          2.5794861069       -0.0338675528       -1.1129197217
 C          3.9450708219       -0.0746421540       -1.4220998561
 C          4.4468708817        0.6512223231       -2.4853691815
 O          4.8382364418       -0.8307382414       -0.7029409321
 C          4.3370001380       -1.5976117484        0.3215148115
 C          5.2298814078       -2.4152895573        0.9874705974
 C          4.8067657602       -3.1882840545        2.0595381972
 C          3.4904231831       -3.1223804823        2.4678857105
 C          2.5885035012       -2.3084227822        1.7992959693
 C          2.9893506727       -1.5522352318        0.7050946098
 N          2.1092873549       -0.7285094071        0.0036992725
 C          0.7560288612       -0.5981074928        0.3969135119
 C         -0.0631378364       -1.7136739121        0.2368577023
 C         -1.4626811240       -1.6744889645        0.4290004464
 C         -2.5037847976       -2.6042911661        0.0040147140
 C         -2.2081948589       -3.9503495031       -0.2197817960
 C         -3.1736638101       -4.8456648727       -0.6251742157
 C         -4.4755846194       -4.4099809981       -0.8366518784
 C         -4.7968475858       -3.0848316340       -0.6403220507
 C         -3.8470769428       -2.1536614300       -0.2136481618
 C         -4.2062320632       -0.7535234561       -0.0178860793
 C         -5.2705839355        0.0223846715       -0.5670504936
 C         -5.2586025474        1.4003609576       -0.5721670083
 C         -4.1738824432        2.1549299375       -0.0314209760
 C         -3.7424714313        3.4905085678       -0.2917038413
 C         -2.4536229778        3.9081370732       -0.0408579830
 C         -1.4576013812        3.0455117325        0.5072276294
 C         -0.0063215205        3.1707921830        0.5630244065
 C          0.6049948366        4.4212364402        0.4484967983
 C          1.9708057990        4.5725069631        0.5396160813
 C          2.7720162287        3.4630135716        0.7724199537
 C          2.2031978972        2.2124239143        0.8708673423
 C          0.8260928396        2.0169046696        0.7418152486
 C          0.2413435008        0.6772419713        0.7875002889
 C         -1.1127767223        0.6659430447        1.0489091160
 C         -1.9327162410        1.8229888113        0.9169156588
 C         -3.2478898459        1.3909641162        0.6601423644
 C         -3.2635506416       -0.0168494263        0.6587267549
 C         -1.9331522171       -0.4623250054        0.8874434562
 H          4.0004291116        1.9922076499       -4.0904485171
 H          1.5680774566        1.9935482327       -3.6231182931
 H          0.6736654333        0.6990299684       -1.7518606135
 H          5.5061037129        0.6048311972       -2.6822160051
 H          6.2561819300       -2.4270280488        0.6567532800
 H          5.5109426520       -3.8245524982        2.5720356909
 H          3.1507208873       -3.7019167117        3.3127038957
 H          1.5649771534       -2.2541838340        2.1358890902
 H          0.4008650038       -2.6052734530       -0.1621258715
 H         -1.2001068824       -4.2964644998       -0.0438458764
 H         -2.9200064264       -5.8850339568       -0.7727059386
 H         -5.2359798547       -5.1103220678       -1.1494298554
 H         -5.8137685860       -2.7552266562       -0.7949318114
 H         -6.0789358989       -0.4797958443       -1.0799380550
 H         -6.0550089367        1.9231842251       -1.0841776394
 H         -4.4211866379        4.1723067233       -0.7859195368
 H         -2.1737777539        4.9046996836       -0.3523684961
 H         -0.0188776584        5.2923362672        0.3120637867
 H          2.4144918708        5.5532709662        0.4526010656
 H          3.8401279320        3.5775730002        0.8811515418
 H          2.8365649773        1.3672500957        1.0903256869
  63
       -103.41063689
 C          3.6860228688       -1.3325745877       -4.0811156245
 C          2.3818625023       -0.9117241282       -3.9146784330
 C          1.8824998435       -0.6614876871       -2.6460452385
 C          2.6766361049       -0.8416979562       -1.5200965103
 C          4.0118568289       -1.2241573267       -1.7037669191
 C          4.5044425060       -1.4760207877       -2.9707433281
 O          4.8913748854       -1.3553282424       -0.6579973388
 C          4.4113109880       -1.1109061473        0.6051982225
 C          5.3092025981       -1.2406287637        1.6485741118
 C          4.8990536679       -1.0313481117        2.9566354242
 C          3.5818694263       -0.7086766215        3.2107660760
 C          2.6775594062       -0.5787424874        2.1682426570
 C          3.0775905830       -0.7591859245        0.8501180785
 N          2.1967160770       -0.6037592138       -0.2295678241
 C          0.8094492921       -0.4886472574        0.0244729036
 C          0.0010786315       -1.5402732961       -0.3946204586
 C         -1.4024264010       -1.5669515485       -0.1921517143
 C         -2.4623832858       -2.3380486943       -0.8284962711
 C         -2.1568850865       -3.4589037710       -1.6054552244
 C         -3.1315816864       -4.1740726102       -2.2642669520
 C         -4.4610736048       -3.7814878585       -2.1681233039
 C         -4.7971897828       -2.6771731225       -1.4177237253
 C         -3.8356176090       -1.9282678781       -0.7332074427
 C         -4.2163368874       -0.7301396857        0.0050260158
 C         -5.3863568419        0.0868422389       -0.0657835398
 C         -5.4266767142        1.3764402248        0.4197380849
 C         -4.2905112687        2.0026485897        1.0168900589
 C         -3.9513751196        3.3781956900        1.2002986260
 C         -2.6511239209        3.7970461388        1.3784186108
 C         -1.5437920782        2.8927803662        1.4029473959
 C         -0.1195496767        3.1166898662        1.2006177922
 C          0.3992726388        4.4108489707        1.3025926606
 C          1.7217600399        4.6904030660        1.0471189640
 C          2.5720732406        3.6640078024        0.6581552516
 C          2.0976374648        2.3757267488        0.5548567436
 C          0.7661228876        2.0441734484        0.8314389280
 C          0.2715682933        0.6776143074        0.6730422786
 C         -1.0405163264        0.5047445361        1.0581062045
 C         -1.9067837895        1.5696660071        1.4228692808
 C         -3.2331480712        1.1379824348        1.2371723676
 C         -3.2033559433       -0.1827877950        0.7551033074
 C         -1.8446147575       -0.5756473820        0.6521128586
 H          4.0763846131       -1.5404038194       -5.0648740119
 H          1.7389852175       -0.7740577987       -4.7704610293
 H          0.8648191418       -0.3224773161       -2.5269161374
 H          5.5335701687       -1.7837717944       -3.0659190769
 H          6.3266398267       -1.5102577450        1.4142397579
 H          5.6082159975       -1.1288212764        3.7634093801
 H          3.2419007071       -0.5547833852        4.2233074592
 H          1.6506445363       -0.3348954103        2.3872530439
 H          0.4842283121       -2.3376110044       -0.9424900185
 H         -1.1258899732       -3.7715206152       -1.6814880383
 H         -2.8636606048       -5.0380679237       -2.8543116134
 H         -5.2290412742       -4.3413939803       -2.6812079182
 H         -5.8334109765       -2.3821713589       -1.3426363777
 H         -6.2579604141       -0.2818994029       -0.5881993282
 H         -6.3232808463        1.9602485388        0.2612374877
 H         -4.7278222097        4.1258862579        1.1112861872
 H         -2.4664666124        4.8612342370        1.4197484538
 H         -0.2642553621        5.2096896425        1.5990613851
 H          2.0929467939        5.7001863386        1.1411876070
 H          3.6086380728        3.8720907318        0.4381205005
 H          2.7830376141        1.6032067334        0.2524129763
  63
       -103.41031207
 C          3.6588579565       -1.4593308533       -4.0712433065
 C          2.3528327481       -1.0427447158       -3.9086201072
 C          1.8617324396       -0.7518566073       -2.6455482529
 C          2.6648713077       -0.8878040001       -1.5194145203
 C          4.0037335722       -1.2577958533       -1.7025157725
 C          4.4882138261       -1.5513289862       -2.9638042890
 O          4.8963575761       -1.3335295068       -0.6627339907
 C          4.4242907624       -1.0539519786        0.5959395509
 C          5.3377448142       -1.1206880713        1.6317365517
 C          4.9367772692       -0.8783712346        2.9367705235
 C          3.6122826494       -0.5919247022        3.1964522249
 C          2.6930232076       -0.5235648125        2.1613810341
 C          3.0843853641       -0.7288427370        0.8440841045
 N          2.1908941065       -0.6208081406       -0.2314521645
 C          0.8055411624       -0.5033171969        0.0269018362
 C         -0.0061232044       -1.5526530016       -0.3928456639
 C         -1.4106918260       -1.5722795654       -0.1978661048
 C         -2.4714979528       -2.3317206328       -0.8465112620
 C         -2.1677651652       -3.4465264910       -1.6329072194
 C         -3.1420032837       -4.1467747992       -2.3081437644
 C         -4.4692462320       -3.7448293540       -2.2193184931
 C         -4.8036365301       -2.6469544402       -1.4587973933
 C         -3.8425274777       -1.9130908558       -0.7574003481
 C         -4.2205878986       -0.7198558901       -0.0099781063
 C         -5.3861441159        0.1037586391       -0.0788535896
 C         -5.4227705952        1.3889363138        0.4186035156
 C         -4.2864712345        2.0043734247        1.0266057540
 C         -3.9424414628        3.3764515200        1.2260513982
 C         -2.6412036585        3.7879493213        1.4138903042
 C         -1.5378158160        2.8788277892        1.4312094300
 C         -0.1126495095        3.0990868672        1.2326047910
 C          0.4119442631        4.3888537903        1.3577745522
 C          1.7342460804        4.6681946266        1.1016853853
 C          2.5761574264        3.6472099683        0.6817020536
 C          2.0960134980        2.3630296066        0.5568153835
 C          0.7670915952        2.0287777801        0.8432488144
 C          0.2695012567        0.6638414001        0.6770992653
 C         -1.0428534113        0.4920750789        1.0626553427
 C         -1.9058977844        1.5571557752        1.4347753658
 C         -3.2335935330        1.1330242764        1.2419475634
 C         -3.2081806302       -0.1837789408        0.7491143065
 C         -1.8510719902       -0.5824130003        0.6487259574
 H          4.0423005212       -1.7010091341       -5.0499704207
 H          1.7016515541       -0.9402939793       -4.7630970917
 H          0.8424531522       -0.4160320135       -2.5320609037
 H          5.5205744089       -1.8487250023       -3.0566448107
 H          6.3599340971       -1.3682213650        1.3937079577
 H          5.6580031277       -0.9249031901        3.7373588159
 H          3.2784214839       -0.4175523640        4.2076907855
 H          1.6613810629       -0.3066477260        2.3858820037
 H          0.4751733519       -2.3542508129       -0.9358959562
 H         -1.1385272405       -3.7661940133       -1.7033626754
 H         -2.8754596203       -5.0059761233       -2.9057632276
 H         -5.2367182534       -4.2920234747       -2.7466815411
 H         -5.8381607661       -2.3444929759       -1.3902428774
 H         -6.2570642169       -0.2557343474       -0.6088472109
 H         -6.3160106158        1.9782856369        0.2615292900
 H         -4.7153427628        4.1283603375        1.1418012857
 H         -2.4520452761        4.8508123549        1.4674039554
 H         -0.2469606747        5.1838616880        1.6741363363
 H          2.1110332663        5.6736842864        1.2167549264
 H          3.6112805230        3.8558210355        0.4554824173
 H          2.7758607591        1.5964427974        0.2285479575
