  73
       -117.01093159
 N          3.3404921658        1.6442239170       -0.9445177892
 C          2.3469600382        1.1432618317       -0.6036627047
 C          1.1725224502        0.5567179985       -0.1916955831
 C         -0.0249731550        1.3453005755        0.0179227897
 N          0.0859813424        2.7384586116        0.0404872131
 C          0.9273568508        3.4649193130        0.8524134919
 C          1.8042581139        3.0208491507        1.8323184739
 C          2.5299161574        3.9695604098        2.5262869403
 C          2.3770009863        5.3296972971        2.2686539235
 C          1.4821969859        5.7803792084        1.3136352345
 C          0.7466895929        4.8463707395        0.6017913006
 C         -0.2616301437        4.9441955904       -0.4194765463
 C         -0.8533421513        6.0069298764       -1.0839446657
 C         -1.8018533897        5.7369651813       -2.0550075218
 C         -2.1461779455        4.4268327178       -2.3789018036
 C         -1.5697199450        3.3519798046       -1.7291753574
 C         -0.6389942148        3.6161774413       -0.7342856000
 C         -1.2457181333        0.7491044621        0.1602541772
 C         -1.3725781422       -0.6599435212        0.1580718090
 N         -2.6067381107       -1.2549590178        0.3845140314
 C         -2.8518222713       -2.2937820060        1.2604371755
 C         -1.9859149300       -2.9368802434        2.1355526700
 C         -2.4964798039       -3.9488070629        2.9269150931
 C         -3.8412935074       -4.3121644648        2.8618732747
 C         -4.7176368312       -3.6546698078        2.0181710874
 C         -4.2299948323       -2.6318918104        1.2178856186
 C         -4.8391069386       -1.7358250566        0.2782547581
 C         -6.1357038000       -1.5757461772       -0.1891704250
 C         -6.3822979644       -0.6077106216       -1.1453811009
 C         -5.3506046046        0.1832656349       -1.6502167230
 C         -4.0522092238        0.0437097967       -1.1974846380
 C         -3.8001462543       -0.9036203424       -0.2143547692
 C         -0.2108090526       -1.4532888016        0.0000915632
 C          1.0193457932       -0.8833306173       -0.1613367788
 N          2.1505183076       -1.6806307750       -0.3655663912
 C          3.3295763650       -1.6033785025        0.3399707200
 C          3.6516094367       -0.8083237049        1.4313715283
 C          4.9118050722       -0.9462158400        1.9801866585
 C          5.8278958585       -1.8631478458        1.4703248842
 C          5.5027685942       -2.6788111431        0.4004242231
 C          4.2452906253       -2.5554121197       -0.1688419959
 C          3.5693729209       -3.2336240823       -1.2422431539
 C          3.9365332437       -4.2407965818       -2.1207126147
 C          3.0216423176       -4.6562760239       -3.0724476967
 C          1.7612573756       -4.0704374106       -3.1620642484
 C          1.3714538884       -3.0659623735       -2.2961455889
 C          2.2776288296       -2.6592150751       -1.3260092804
 H          1.9157217840        1.9703016418        2.0456844209
 H          3.2262867171        3.6504240865        3.2869122120
 H          2.9624011950        6.0417232687        2.8303629318
 H          1.3575156259        6.8359411845        1.1260854276
 H         -0.5740331295        7.0229497062       -0.8506205319
 H         -2.2759421440        6.5518859281       -2.5805685580
 H         -2.8742398979        4.2470711716       -3.1555405312
 H         -1.8203360120        2.3381562381       -1.9992977872
 H         -2.1171610718        1.3569682392        0.3491745918
 H         -0.9503013433       -2.6443056790        2.2154072076
 H         -1.8423259153       -4.4613488526        3.6155407043
 H         -4.2023473763       -5.1105761444        3.4921832632
 H         -5.7619771036       -3.9250915617        1.9840753076
 H         -6.9321772623       -2.2016022268        0.1835778033
 H         -7.3853032354       -0.4667969952       -1.5189103732
 H         -5.5685020009        0.9147495631       -2.4135531214
 H         -3.2578845630        0.6438723333       -1.6111806525
 H         -0.3062199320       -2.5278888281       -0.0136677837
 H          2.9434834702       -0.1044202121        1.8374047390
 H          5.1914284476       -0.3321309852        2.8228945599
 H          6.8043624945       -1.9407690048        1.9240252410
 H          6.2100363182       -3.3990367908        0.0182532612
 H          4.9185015269       -4.6851534215       -2.0654973321
 H          3.2891494237       -5.4399232461       -3.7648735031
 H          1.0748609868       -4.4055697593       -3.9249954987
 H          0.3990906359       -2.6049449454       -2.3800738602
  73
       -117.01081905
 N          3.3906071470        1.6265719335       -0.9660134597
 C          2.3719564035        1.1438030860       -0.6750164294
 C          1.1713933049        0.5676416502       -0.3311805833
 C         -0.0146132332        1.3615624763       -0.0846546736
 N          0.0712080178        2.7541387654       -0.2053431449
 C          0.8960416833        3.5797850413        0.5234254906
 C          1.7979360261        3.2563609258        1.5280736706
 C          2.4932802179        4.2911032457        2.1237162963
 C          2.2892854234        5.6157313649        1.7444521702
 C          1.3729980104        5.9456970626        0.7608659271
 C          0.6657038427        4.9248724928        0.1462512934
 C         -0.3555831083        4.8931545127       -0.8667136656
 C         -0.9944189134        5.8669805074       -1.6181587081
 C         -1.9468163955        5.4733259442       -2.5423405398
 C         -2.2514326087        4.1277227663       -2.7334048871
 C         -1.6283328631        3.1396547128       -1.9948565824
 C         -0.6910387714        3.5297346586       -1.0487574500
 C         -1.2079291622        0.7742955882        0.2222263282
 C         -1.3166746048       -0.6288908699        0.3661510060
 N         -2.5291821646       -1.2152183560        0.7008223844
 C         -2.7155228764       -2.2022694637        1.6489277279
 C         -1.7992172545       -2.7823947491        2.5156452361
 C         -2.2531782267       -3.7507177591        3.3914217751
 C         -3.5938899952       -4.1337936456        3.4159219955
 C         -4.5203334428       -3.5389957218        2.5791285471
 C         -4.0884623551       -2.5605756192        1.6953548659
 C         -4.7562050002       -1.7341467870        0.7324906035
 C         -6.0766900599       -1.6201722036        0.3223392802
 C         -6.3852586082       -0.7197493838       -0.6807363391
 C         -5.3922343682        0.0500013687       -1.2859215060
 C         -4.0710300110       -0.0435729755       -0.8907433813
 C         -3.7554864295       -0.9223716017        0.1365929840
 C         -0.1657164602       -1.4266773614        0.1608534391
 C          1.0251701126       -0.8664597591       -0.1990424286
 N          2.1470470339       -1.6790878283       -0.4085674837
 C          2.6896191459       -2.5421639401        0.5154556008
 C          2.3209212000       -2.7616067884        1.8352212318
 C          3.0488149511       -3.6823343256        2.5648421696
 C          4.1224140269       -4.3662222588        1.9994121675
 C          4.5089104220       -4.1349610382        0.6904991654
 C          3.7941957186       -3.2149273942       -0.0604873749
 C          3.9090914041       -2.7209823900       -1.4071144783
 C          4.7641081556       -3.0014554520       -2.4608694844
 C          4.5683100623       -2.3448415646       -3.6636664961
 C          3.5306954566       -1.4296741957       -3.8246357588
 C          2.6638712717       -1.1350661102       -2.7898383667
 C          2.8705459037       -1.7734086302       -1.5745047477
 H          1.9555345863        2.2331336870        1.8297691411
 H          3.2077499778        4.0680302274        2.9014298135
 H          2.8525942470        6.3965081141        2.2326682793
 H          1.2092733855        6.9745515672        0.4786145469
 H         -0.7492161970        6.9097405724       -1.4866083151
 H         -2.4571471168        6.2181320838       -3.1339188599
 H         -2.9860331350        3.8508443231       -3.4745987073
 H         -1.8497417041        2.0961530225       -2.1584838223
 H         -2.0688161034        1.3942054585        0.4211961847
 H         -0.7648864625       -2.4785908144        2.5213893345
 H         -1.5563001339       -4.2154622395        4.0722424628
 H         -3.9112214289       -4.8977538051        4.1094704561
 H         -5.5609776981       -3.8235586863        2.6133750360
 H         -6.8441437828       -2.2285245683        0.7759724302
 H         -7.4072466240       -0.6169343812       -1.0125765065
 H         -5.6588130423        0.7283396035       -2.0821410862
 H         -3.3088137730        0.5401814625       -1.3808137029
 H         -0.2478673645       -2.5006807334        0.2293327943
 H          1.5015611624       -2.2174459374        2.2795221311
 H          2.7821895702       -3.8728761990        3.5935706080
 H          4.6655998034       -5.0812220066        2.5985014357
 H          5.3519647509       -4.6554514369        0.2625570331
 H          5.5625467505       -3.7184019143       -2.3446900914
 H          5.2256187679       -2.5479261698       -4.4955380350
 H          3.3988770456       -0.9423662739       -4.7787184521
 H          1.8585568679       -0.4297550165       -2.9203389063
  73
       -117.01071455
 N          3.3083672575        1.6179164616       -1.1845892970
 C          2.3114949853        1.1282969848       -0.8360683179
 C          1.1308600502        0.5544592209       -0.4260395043
 C         -0.0479675493        1.3498513966       -0.1459626133
 N          0.0537784071        2.7431643754       -0.2260688438
 C          0.9323910559        3.5201179131        0.4946139236
 C          1.8610770263        3.1371156323        1.4529897203
 C          2.6131623347        4.1299825210        2.0508785091
 C          2.4376741485        5.4716042541        1.7205481678
 C          1.4936217568        5.8610813593        0.7860928696
 C          0.7300191171        4.8828199788        0.1696668746
 C         -0.3323847858        4.9145898371       -0.8000950450
 C         -0.9678967559        5.9324471775       -1.4934678342
 C         -1.9705409573        5.6001635366       -2.3880666316
 C         -2.3294073646        4.2720480980       -2.6054812692
 C         -1.7100080597        3.2406442332       -1.9251822193
 C         -0.7193296182        3.5685602504       -1.0102535727
 C         -1.2372262312        0.7606630663        0.1732940691
 C         -1.3425686220       -0.6430012532        0.3142853390
 N         -2.5508845330       -1.2300981278        0.6630525047
 C         -2.7309889849       -2.2040081259        1.6258402538
 C         -1.8090698342       -2.7724430502        2.4945579802
 C         -2.2577043865       -3.7279195970        3.3868934094
 C         -3.5984081064       -4.1096238676        3.4258341424
 C         -4.5300581950       -3.5265641513        2.5866043592
 C         -4.1037122604       -2.5610584817        1.6860995877
 C         -4.7775996447       -1.7480028156        0.7159507258
 C         -6.1004703995       -1.6382354188        0.3123255082
 C         -6.4140291318       -0.7512488684       -0.7011709276
 C         -5.4241322400        0.0090146759       -1.3234211584
 C         -4.1007331250       -0.0801170546       -0.9347302499
 C         -3.7804721976       -0.9449819665        0.1028164431
 C         -0.1879497163       -1.4381630648        0.1168750175
 C          0.9968087644       -0.8765588040       -0.2589346209
 N          2.1319061405       -1.6812564182       -0.4299747853
 C          2.6967586913       -2.4687405141        0.5466091809
 C          2.3300985447       -2.6150586034        1.8769812704
 C          3.0838449298       -3.4644421366        2.6646644729
 C          4.1797975782       -4.1491056302        2.1450409064
 C          4.5623411149       -3.9910485697        0.8240204589
 C          3.8218847622       -3.1434656736        0.0148960296
 C          3.9255540581       -2.7312242171       -1.3600141017
 C          4.7905727911       -3.0513046896       -2.3940628430
 C          4.5800060509       -2.4739171495       -3.6344790369
 C          3.5189040938       -1.5979651660       -3.8514577032
 C          2.6416832865       -1.2650716297       -2.8373643433
 C          2.8614520343       -1.8249802050       -1.5861836618
 H          1.9959518390        2.1008929733        1.7193269027
 H          3.3497221078        3.8597671062        2.7922740216
 H          3.0450350982        6.2183569310        2.2091487434
 H          1.3518532662        6.9030616679        0.5429186673
 H         -0.6816218661        6.9616929969       -1.3400581657
 H         -2.4786821228        6.3797896784       -2.9349729083
 H         -3.1044028524        4.0434374967       -3.3215819331
 H         -1.9766969036        2.2114830340       -2.1097229809
 H         -2.0949859172        1.3782555759        0.3926598486
 H         -0.7743441685       -2.4699745277        2.4889756465
 H         -1.5567741830       -4.1828753661        4.0701810901
 H         -3.9114470387       -4.8631375485        4.1325283024
 H         -5.5704047037       -3.8104430054        2.6317474527
 H         -6.8660294407       -2.2392565637        0.7788919766
 H         -7.4380553632       -0.6517198919       -1.0278429866
 H         -5.6954251882        0.6759512901       -2.1276399698
 H         -3.3389934233        0.4944228107       -1.4368755109
 H         -0.2609470205       -2.5108109904        0.2109295364
 H          1.4930476126       -2.0685741867        2.2846165503
 H          2.8205423466       -3.5964193042        3.7034041874
 H          4.7438577160       -4.8061025193        2.7894701244
 H          5.4223996653       -4.5115121993        0.4313345339
 H          5.6083982250       -3.7371584356       -2.2337752771
 H          5.2447889045       -2.7088995458       -4.4518964058
 H          3.3776220492       -1.1718963842       -4.8331318363
 H          1.8187371976       -0.5896333645       -3.0095096201
  73
       -117.01060376
 N          3.2791218457        1.5981325508       -1.2800087406
 C          2.2908627426        1.1126351824       -0.9016415246
 C          1.1192975909        0.5429676966       -0.4606997359
 C         -0.0540626963        1.3406616352       -0.1615998952
 N          0.0523946444        2.7336554614       -0.2297772418
 C          0.9584102992        3.4976257832        0.4713547310
 C          1.9137771197        3.0993127856        1.3968128454
 C          2.6933710583        4.0808636851        1.9779354577
 C          2.5188151709        5.4266298348        1.6644007011
 C          1.5468938850        5.8316880962        0.7658959600
 C          0.7552124977        4.8649427430        0.1669654506
 C         -0.3389999843        4.9142200756       -0.7658189420
 C         -0.9929703029        5.9443039577       -1.4230538343
 C         -2.0280161850        5.6290268091       -2.2863286370
 C         -2.3999487716        4.3055512603       -2.5098291358
 C         -1.7624209287        3.2623523848       -1.8652902223
 C         -0.7406090913        3.5729519395       -0.9790748782
 C         -1.2409280888        0.7515026929        0.1671382431
 C         -1.3479272796       -0.6525693798        0.3021590999
 N         -2.5578889704       -1.2375994926        0.6488272942
 C         -2.7457536337       -2.2136461568        1.6080705698
 C         -1.8283196382       -2.7969180567        2.4718881285
 C         -2.2859369925       -3.7516281616        3.3606042436
 C         -3.6308446163       -4.1179502731        3.4017120318
 C         -4.5576280786       -3.5207350402        2.5671340082
 C         -4.1221938942       -2.5565861281        1.6696626155
 C         -4.7895912176       -1.7346517072        0.7025418256
 C         -6.1116354346       -1.6114919699        0.2999483300
 C         -6.4172965642       -0.7202500880       -0.7122148513
 C         -5.4203394559        0.0303093919       -1.3349700115
 C         -4.0977652823       -0.0723787621       -0.9471252223
 C         -3.7854206951       -0.9402768990        0.0901947762
 C         -0.1933336403       -1.4478841452        0.1036272245
 C          0.9889260973       -0.8862433292       -0.2792324051
 N          2.1291326754       -1.6877444583       -0.4347301584
 C          2.7073334383       -2.4351365125        0.5651282611
 C          2.3440525597       -2.5444915174        1.8999291590
 C          3.1134878086       -3.3544827022        2.7135901195
 C          4.2203393317       -4.0368391595        2.2145427094
 C          4.5982466013       -3.9160941508        0.8882450236
 C          3.8427162083       -3.1078480946        0.0532695653
 C          3.9384874947       -2.7368468723       -1.3339849155
 C          4.8087695500       -3.0730311781       -2.3584881015
 C          4.5900044816       -2.5343583210       -3.6147842699
 C          3.5158793175       -1.6810816685       -3.8567788647
 C          2.6330885387       -1.3329514102       -2.8526989700
 C          2.8605962269       -1.8540908267       -1.5862742643
 H          2.0484588119        2.0600992099        1.6512595698
 H          3.4511041019        3.7982447528        2.6928673733
 H          3.1480883936        6.1642616233        2.1389245457
 H          1.4049955592        6.8769219977        0.5371775222
 H         -0.6967244665        6.9700894665       -1.2655459882
 H         -2.5523778426        6.4184492313       -2.8030364942
 H         -3.2004677743        4.0900303794       -3.2014393823
 H         -2.0397144970        2.2373228707       -2.0556840160
 H         -2.0952940602        1.3689911585        0.3998139212
 H         -0.7899687634       -2.5068084217        2.4662816244
 H         -1.5883869240       -4.2187552365        4.0391348235
 H         -3.9503581378       -4.8728770046        4.1039809880
 H         -5.6007159604       -3.7945827298        2.6114329030
 H         -6.8826959964       -2.2056878557        0.7661806179
 H         -7.4404917217       -0.6103554743       -1.0381138465
 H         -5.6853110047        0.6998192749       -2.1391719837
 H         -3.3300850064        0.4929836993       -1.4504427444
 H         -0.2632872717       -2.5199454117        0.2054443612
 H          1.4975529931       -2.0000130817        2.2905556868
 H          2.8539593059       -3.4568555529        3.7566363700
 H          4.7958503927       -4.6634468856        2.8788786674
 H          5.4655331976       -4.4359150687        0.5109138486
 H          5.6377773276       -3.7404120784       -2.1784791602
 H          5.2596899110       -2.7809571238       -4.4247504351
 H          3.3692118069       -1.2847610959       -4.8500239045
 H          1.8002909026       -0.6746531066       -3.0433362222
  73
       -117.00899390
 N          3.3814381008        1.6585606320       -0.8299851387
 C          2.3605583753        1.1551107223       -0.5848381590
 C          1.1554586561        0.5610777774       -0.2932231009
 C         -0.0332322883        1.3408483048       -0.0083417293
 N          0.0707216063        2.7374013368       -0.0048259274
 C         -0.2318604748        3.5568887629        1.0589467197
 C         -0.6656871130        3.2207280832        2.3342546711
 C         -0.8895670866        4.2492154073        3.2305400035
 C         -0.6851572233        5.5796064533        2.8725357993
 C         -0.2360593552        5.9191741690        1.6078419640
 C         -0.0024126335        4.9053967152        0.6921800850
 C          0.4583296412        4.8807520104       -0.6706061393
 C          0.8142431258        5.8649156757       -1.5787929280
 C          1.1840675227        5.4825465433       -2.8566888804
 C          1.1867308848        4.1420000485       -3.2349455829
 C          0.8331857370        3.1430702134       -2.3485269955
 C          0.4882408318        3.5190519905       -1.0571183278
 C         -1.2109890553        0.7366435748        0.3213202467
 C         -1.3269258940       -0.6723654607        0.3601631044
 N         -2.5326909998       -1.2723282466        0.6995161173
 C         -2.6906049494       -2.3244939657        1.5787169911
 C         -1.7410154203       -2.9874498561        2.3456547289
 C         -2.1731792828       -4.0040297293        3.1768912894
 C         -3.5212277997       -4.3528355005        3.2558536063
 C         -4.4774022911       -3.6764556610        2.5205561313
 C         -4.0690115663       -2.6495486043        1.6818431798
 C         -4.7667262953       -1.7362406560        0.8244882645
 C         -6.1043574392       -1.5580403095        0.5024434594
 C         -6.4419137266       -0.5768608849       -0.4116941747
 C         -5.4621808749        0.2086716033       -1.0187693616
 C         -4.1234660090        0.0531867193       -0.7113947911
 C         -3.7783504442       -0.9062093240        0.2322238680
 C         -0.1917469558       -1.4583142259        0.0504016042
 C          1.0061955252       -0.8797967467       -0.2492635492
 N          2.1081154936       -1.6713726425       -0.6018255069
 C          3.3329844272       -1.6767419382        0.0230867461
 C          3.7430048162       -0.9881885492        1.1569700406
 C          5.0323697797       -1.2010908314        1.6053278355
 C          5.8900423213       -2.0851890512        0.9549972951
 C          5.4778427829       -2.7924009066       -0.1614143717
 C          4.1899599245       -2.5934873712       -0.6323626751
 C          3.4277383026       -3.1581584100       -1.7143584643
 C          3.7073692035       -4.0871973965       -2.7040514023
 C          2.7160512282       -4.4003659892       -3.6183689853
 C          1.4635410899       -3.7941691697       -3.5586871931
 C          1.1594433734       -2.8672558955       -2.5790511093
 C          2.1460007579       -2.5593669748       -1.6521662317
 H         -0.8157945104        2.1903154672        2.6187210121
 H         -1.2296426730        4.0157013900        4.2281508962
 H         -0.8746363318        6.3557297414        3.5984234097
 H         -0.0671240008        6.9505562412        1.3388844261
 H          0.7997877577        6.9058203396       -1.2940848705
 H          1.4696013407        6.2338344880       -3.5769230292
 H          1.4683015487        3.8775193352       -4.2427922437
 H          0.8310647656        2.1075622079       -2.6496417184
 H         -2.0648929542        1.3433945564        0.5803541723
 H         -0.6990837692       -2.7085109671        2.3123002255
 H         -1.4528865667       -4.5335191296        3.7819017458
 H         -3.8199651366       -5.1555021869        3.9129631270
 H         -5.5223261494       -3.9350558539        2.5995197175
 H         -6.8629014269       -2.1789591734        0.9541992955
 H         -7.4776682578       -0.4224767236       -0.6735492149
 H         -5.7539842083        0.9487767618       -1.7483248635
 H         -3.3717712346        0.6483484083       -1.2067508678
 H         -0.2844534575       -2.5332984682        0.0250659121
 H          3.0808064063       -0.3064971991        1.6668526154
 H          5.3807339942       -0.6741599571        2.4804717314
 H          6.8910069970       -2.2236541522        1.3348151088
 H          6.1420351041       -3.4859210849       -0.6542120641
 H          4.6800468185       -4.5512816201       -2.7616751896
 H          2.9159071491       -5.1210975059       -4.3966962713
 H          0.7154998069       -4.0512788901       -4.2935159451
 H          0.1907109700       -2.3921521025       -2.5397585883
