  90
       -140.25551609
 N         -2.0828245856       -7.9390271986       -0.1279878079
 C         -1.1569570797       -7.2498403318       -0.0740742820
 C          0.0002103420       -6.4789418354       -0.0083051133
 C          1.1595315130       -7.2471317663        0.0509181716
 N          2.0881057699       -7.9320691223        0.1018938876
 C         -0.0015722389       -5.0558335242       -0.0029229854
 C         -1.1522168375       -4.2108982773       -0.0190566502
 C         -2.5222994618       -4.4900569629       -0.0438154415
 C         -3.4199176254       -3.4497367209       -0.0622327588
 C         -3.0076892247       -2.1005920051       -0.0411010258
 C         -3.9922564036       -1.0308657506       -0.0450945499
 C         -5.2184729772       -1.1719491830       -0.7097365496
 C         -6.1553762605       -0.1662108541       -0.7067056531
 C         -5.9100603477        1.0323921143       -0.0282943300
 N         -6.8624812954        2.0479931078       -0.0117956842
 C         -8.2258628152        1.7322272864        0.0150554827
 C         -8.6839465813        0.6422032414        0.7560921766
 C        -10.0303488408        0.3359819588        0.7789351214
 C        -10.9379638088        1.1095337173        0.0730858883
 C        -10.4879234023        2.1950476500       -0.6614823721
 C         -9.1430139116        2.5069020627       -0.6959934371
 C         -6.4616219220        3.3883190470       -0.0131171993
 C         -5.3579773687        3.7941615470       -0.7644982175
 C         -4.9659453503        5.1183101251       -0.7616008426
 C         -5.6659076981        6.0558327422       -0.0190073913
 C         -6.7647455516        5.6580948922        0.7258074221
 C         -7.1623807557        4.3356542468        0.7343327473
 C         -4.6884935255        1.1866735435        0.6357137244
 C         -3.7539238055        0.1786454733        0.6220499964
 C         -1.6369976992       -1.8139211456       -0.0075380038
 C         -0.7244809195       -2.8435330819       -0.0040769519
 C          0.7159476931       -2.8417186324        0.0107775014
 C          1.6259984330       -1.8098345228        0.0191735518
 C          2.9972599654       -2.0935803276        0.0512451691
 C          3.9805569777       -1.0226231912        0.0584189255
 C          5.2070045881       -1.1654439585        0.7222647497
 C          6.1454459123       -0.1613161515        0.7177958311
 C          5.9019487004        1.0372760085        0.0384312448
 N          6.8596967420        2.0472247094        0.0166967570
 C          6.4712552671        3.3908668762        0.0069705829
 C          5.3689596725        3.8136301430        0.7509574257
 C          4.9914353796        5.1419569525        0.7374331865
 C          5.7044559273        6.0668411149       -0.0085470021
 C          6.8019767772        5.6522530936       -0.7461025006
 C          7.1852735017        4.3256341320       -0.7438635636
 C          8.2213093814        1.7210892035       -0.0082906651
 C          9.1416499577        2.4849235883        0.7099007855
 C         10.4843763817        2.1631666211        0.6778416068
 C         10.9284441775        1.0789856857       -0.0622085625
 C         10.0174045214        0.3164590312       -0.7755922319
 C          8.6731122349        0.6321586817       -0.7544477323
 C          4.6787885283        1.1945001730       -0.6220144569
 C          3.7423600483        0.1880750469       -0.6064921871
 C          3.4127617585       -3.4417492265        0.0660183301
 C          2.5176725355       -4.4841694011        0.0423389850
 C          1.1470587115       -4.2080627158        0.0186354797
 H         -2.8771169019       -5.5084336813       -0.0454725743
 H         -4.4765716207       -3.6716793309       -0.0542665669
 H         -5.4191977303       -2.0729568739       -1.2687147114
 H         -7.0834142428       -0.2885269994       -1.2458939362
 H         -7.9789188305        0.0479611101        1.3184328252
 H        -10.3739498623       -0.5073408659        1.3589936507
 H        -11.9894854176        0.8682433645        0.0955701709
 H        -11.1883955625        2.7990408482       -1.2186596808
 H         -8.7914757515        3.3454830674       -1.2790055888
 H         -4.8212041933        3.0663906361       -1.3550527804
 H         -4.1132619851        5.4218174934       -1.3504610301
 H         -5.3577163964        7.0900479783       -0.0214277750
 H         -7.3120906118        6.3816918331        1.3112286925
 H         -8.0112682496        4.0242444172        1.3250373614
 H         -4.4945518826        2.0984824103        1.1818128594
 H         -2.8357042468        0.3087920807        1.1744028105
 H         -1.2969041051       -0.7884125393       -0.0202198793
 H          1.2837043611       -0.7851153822        0.0366789786
 H          5.4070640072       -2.0667924925        1.2809280560
 H          7.0741238307       -0.2852107127        1.2555341902
 H          4.8220206418        3.0958633677        1.3443780294
 H          4.1392202408        5.4585828003        1.3200758648
 H          5.4068718818        7.1041424128       -0.0151983223
 H          7.3589590443        6.3657090920       -1.3348264598
 H          8.0330355750        4.0010707572       -1.3290688345
 H          8.7941488281        3.3228442140        1.2962796616
 H         11.1874800566        2.7582106642        1.2412309057
 H         11.9781448538        0.8297297659       -0.0828875622
 H         10.3566125081       -0.5257691446       -1.3597006166
 H          7.9651508430        0.0462267509       -1.3217817203
 H          4.4852214250        2.1065407908       -1.1678424403
 H          2.8230176697        0.3199907459       -1.1566085334
 H          4.4699137188       -3.6611473216        0.0567406486
 H          2.8751701417       -5.5015432050        0.0385022359
