  83
       -131.03362138
 C         12.0979231802       -0.3161527283       -0.1159641370
 C         11.7502537405        0.8166233509        0.6046535301
 C         10.4314975187        1.2156952358        0.6760036256
 C          9.4346426198        0.4805646302        0.0284982180
 C          8.0729213925        0.9598339344        0.1262737887
 N          7.7593026984        2.2269683986        0.2908220191
 N          6.4503447876        2.3510884518        0.3057983108
 C          5.9013071936        1.1527084464        0.1641171827
 C          4.4953894148        0.9209012742        0.2038662977
 C          3.9053137452       -0.3199382813        0.5216224512
 C          2.5487823454       -0.4702353949        0.5271652950
 C          1.6662486928        0.6039932486        0.2326348252
 C          0.2553760682        0.4291955329        0.2132765412
 C         -0.3469590675       -0.8597782133        0.1045709024
 C         -1.6922067139       -1.0227873239        0.0649128618
 C         -2.5892728174        0.0877079878        0.1337897949
 C         -3.9628959541       -0.1942247005        0.0791824374
 N         -4.4262978110       -1.4537335524        0.1191392106
 C         -5.7528597173       -1.3792570199        0.0921379752
 C         -6.6879130109       -2.4534658487        0.1456530097
 C         -6.2509292157       -3.7755712576        0.2601628885
 C         -7.1603691893       -4.8049171442        0.3317509655
 C         -8.5202433035       -4.5136526849        0.2929728601
 C         -8.9611965589       -3.2128049899        0.1770811001
 C         -8.0652132284       -2.1378473139        0.0941671917
 C         -8.4971762509       -0.7575720390       -0.0487584062
 C         -9.8500083385       -0.4220383862       -0.1585854281
 C        -10.2743875757        0.8789845923       -0.3156126351
 C         -9.3435741030        1.9142751691       -0.3797828347
 C         -8.0064909430        1.6334588254       -0.2737971259
 C         -7.5475578760        0.3123399902       -0.0985239597
 C         -6.1827942224       -0.0296580877        0.0097626582
 N         -5.0320551330        0.7143604675        0.0071699875
 C         -4.9348453002        2.1171421261       -0.0958462166
 C         -5.1965020592        2.9154856450        1.0141896657
 C         -5.0986327622        4.2904416024        0.9053800585
 C         -4.7428182157        4.8705163181       -0.3018535487
 C         -4.4833264191        4.0741487665       -1.4054146940
 C         -4.5782510142        2.6978781177       -1.3086084297
 C         -1.9967553384        1.3739002616        0.2780635875
 C         -0.6465080201        1.5290934002        0.3077694312
 C          2.2781373141        1.8613259099       -0.0289626661
 C          3.6325005567        2.0128909371       -0.0411681767
 N          6.9150035251        0.2171326676        0.0438737363
 C          6.7983270511       -1.1670924752       -0.1633729365
 C          7.3694411027       -2.0548361649        0.7431272803
 C          7.2566060494       -3.4157604710        0.5274938034
 C          6.5778239871       -3.8934816804       -0.5818829868
 C          6.0106414057       -3.0065292143       -1.4832605122
 C          6.1198323660       -1.6437641103       -1.2815321439
 C          9.7945808401       -0.6435934981       -0.7157965319
 C         11.1183112252       -1.0358825772       -0.7800157491
 H         13.1295313556       -0.6313671980       -0.1677838450
 H         12.5127545908        1.3887492388        1.1123212598
 H         10.1434261150        2.0961093052        1.2284292071
 H          4.5276224465       -1.1576712896        0.7984177744
 H          2.1404743131       -1.4274113239        0.8115426553
 H          0.2840348720       -1.7294972620        0.0094730133
 H         -2.1318760110       -2.0017888581       -0.0375470221
 H         -5.1875170399       -3.9537605786        0.2939002144
 H         -6.8269009343       -5.8278967320        0.4206950680
 H         -9.2419315670       -5.3153906879        0.3544184331
 H        -10.0252607479       -3.0395896689        0.1543596894
 H        -10.5987199597       -1.1970846347       -0.1277480584
 H        -11.3290625356        1.0953579696       -0.3969698775
 H         -9.6738928839        2.9332578494       -0.5157371442
 H         -7.2911610680        2.4370175830       -0.3366527319
 H         -5.4741860158        2.4508443589        1.9488288588
 H         -5.2988630481        4.9102313633        1.7664191920
 H         -4.6671988608        5.9442220008       -0.3819051160
 H         -4.2075536241        4.5257202511       -2.3462072390
 H         -4.3745229804        2.0656272352       -2.1599102588
 H         -2.6218470821        2.2436644169        0.3976556578
 H         -0.2490127372        2.5216989204        0.4538208745
 H          1.6595881574        2.7131089999       -0.2636846770
 H          4.0835037830        2.9695050077       -0.2540074234
 H          7.8959562476       -1.6717571240        1.6048008873
 H          7.6977901111       -4.1050990516        1.2314528442
 H          6.4902139739       -4.9569520017       -0.7443082282
 H          5.4832685198       -3.3766195959       -2.3495262564
 H          5.6806436702       -0.9431429891       -1.9763680264
 H          9.0487897936       -1.2001277242       -1.2638423078
 H         11.3866782671       -1.9077606487       -1.3588709902
