  75
       -113.09004507
 N        -10.2641542027        1.1237277693        0.1168675954
 C         -9.1184460966        0.9949133050        0.0889300916
 C         -7.7294032755        0.8387374040        0.0586732796
 C         -7.1370111673       -0.1601676589       -0.7363028563
 C         -5.7790382867       -0.3234896519       -0.7458354384
 C         -4.9304739483        0.5033232201        0.0288457231
 C         -3.5090851780        0.3285224715        0.0431503530
 C         -2.6645278798        1.4485737282        0.1257543642
 C         -1.3006902645        1.3764626736       -0.0247310632
 C         -0.5348159531        2.6071840142       -0.1928095344
 C         -0.7922613072        3.7303699012        0.5989390495
 C         -0.0662839903        4.8923802712        0.4326332509
 C          0.9227249753        4.9672661558       -0.5368483801
 C          1.1751068628        3.8683959746       -1.3432970186
 C          0.4582113841        2.7013747605       -1.1756163388
 C         -0.6701064372        0.0816205747       -0.1673975353
 C          0.7400198205       -0.0893462581       -0.0738150675
 C          1.5512721057        0.7848815429        0.6990340078
 C          2.9071436930        0.6417825949        0.7568121769
 C          3.5552104931       -0.3889597101        0.0508606809
 N          4.9346996361       -0.5129869504        0.0855604677
 C          5.7356744336        0.6304368134        0.1706318578
 C          5.3716922428        1.7971849429       -0.5054499416
 C          6.1607747403        2.9258940280       -0.4127208380
 C          7.3205554693        2.9112143309        0.3468554012
 C          7.6872276061        1.7545504184        1.0174332294
 C          6.9039001069        0.6206827162        0.9353347516
 C          5.5296704066       -1.7780531732        0.0466403584
 C          4.9378106024       -2.8555313911        0.7092577286
 C          5.5254286518       -4.1039778281        0.6641188147
 C          6.7072592931       -4.2983361715       -0.0340288988
 C          7.2999710505       -3.2309480136       -0.6911322949
 C          6.7192356672       -1.9789133468       -0.6564444253
 C          2.7637598492       -1.2930327710       -0.6847677253
 C          1.4060725164       -1.1542862072       -0.7344000837
 C         -1.5205332678       -1.0364382573       -0.2775755128
 C         -2.8828503822       -0.9607266078       -0.1358799303
 C         -3.6459585589       -2.2051066783       -0.0323236719
 C         -3.4065162728       -3.2619455214       -0.9131865274
 C         -4.1100269951       -4.4451374159       -0.8025251752
 C         -5.0553236941       -4.6039206538        0.1987493266
 C         -5.2895603852       -3.5689935091        1.0908385897
 C         -4.5955050492       -2.3811797940        0.9782135518
 C         -5.5409833716        1.5286301371        0.7892035859
 C         -6.8992887070        1.6854584742        0.8182303666
 H         -7.7698098374       -0.7899724810       -1.3448925847
 H         -5.3410000307       -1.0675821806       -1.3917618738
 H         -3.1220291474        2.4257342583        0.1728798570
 H         -1.5455903262        3.6724606909        1.3713818683
 H         -0.2682223353        5.7457450655        1.0635892607
 H          1.4873455935        5.8782940434       -0.6663901924
 H          1.9321770657        3.9262925297       -2.1121695472
 H          0.6403425820        1.8582530467       -1.8255900837
 H          1.0775079002        1.5449530227        1.2989919881
 H          3.4957545666        1.3030831423        1.3759565708
 H          4.4750730519        1.8032565678       -1.1076874696
 H          5.8722224078        3.8209675551       -0.9428908297
 H          7.9347955437        3.7955273364        0.4157977104
 H          8.5854592731        1.7378398351        1.6160356670
 H          7.1807573920       -0.2756535431        1.4710011665
 H          4.0266480543       -2.6979452997        1.2676639602
 H          5.0623340408       -4.9284496354        1.1850457876
 H          7.1637708495       -5.2754050831       -0.0653895566
 H          8.2175047202       -3.3764106943       -1.2410999608
 H          7.1727958806       -1.1502150376       -1.1804309528
 H          3.2497653234       -2.0795847927       -1.2439035080
 H          0.8327051112       -1.8316001831       -1.3483473087
 H         -1.0702695176       -2.0163193380       -0.3379123542
 H         -2.6846685716       -3.1356207226       -1.7077643719
 H         -3.9246679256       -5.2473759655       -1.5021854704
 H         -5.6043903039       -5.5296025849        0.2846018273
 H         -6.0178661124       -3.6906251831        1.8793173096
 H         -4.7704577746       -1.5848039116        1.6860132146
 H         -4.9236689185        2.1663064549        1.4044637245
 H         -7.3523721773        2.4533531495        1.4289145510
  75
       -113.08920214
 N        -10.1460129002        1.0886487795        1.2043509552
 C         -9.0209259014        0.9596451476        0.9869218389
 C         -7.6565571981        0.8044968178        0.7244117277
 C         -6.9609089733       -0.3263584873        1.1911496764
 C         -5.6302916601       -0.4831038240        0.9178578322
 C         -4.9073026613        0.4828036146        0.1755610539
 C         -3.5091735136        0.3215131905       -0.0882098354
 C         -2.6596252028        1.4405842846       -0.1589695189
 C         -1.2924856259        1.3461158290       -0.2341920096
 C         -0.5037177441        2.5568665036       -0.4509413727
 C         -0.7832078939        3.7355857879        0.2455223344
 C         -0.0379688383        4.8773503435        0.0285853701
 C          0.9942607496        4.8739814351       -0.8974691186
 C          1.2692075092        3.7180510036       -1.6110154653
 C          0.5327061475        2.5715691210       -1.3920754778
 C         -0.6693776332        0.0401223346       -0.2071916260
 C          0.7335300105       -0.1261581820       -0.0463436092
 C          1.5195848205        0.8236058468        0.6653563932
 C          2.8728197382        0.6968404335        0.7779487853
 C          3.5477518574       -0.3915191560        0.1931663518
 N          4.9274237183       -0.4933495521        0.2636916956
 C          5.7153905142        0.6602392739        0.2247920062
 C          5.3340028248        1.7481683492       -0.5646512499
 C          6.1118332955        2.8878677771       -0.5956500574
 C          7.2785027405        2.9626111812        0.1498850541
 C          7.6624138211        1.8847844665        0.9329517959
 C          6.8899315400        0.7414799762        0.9762825063
 C          5.5320958869       -1.7499233614        0.3723804350
 C          4.9423331731       -2.7469993207        1.1524378110
 C          5.5370818894       -3.9885991380        1.2551805357
 C          6.7230966859       -4.2554005051        0.5885839513
 C          7.3126650496       -3.2681603930       -0.1863390564
 C          6.7255072902       -2.0236842724       -0.2988430149
 C          2.7806744047       -1.3753373118       -0.4634083513
 C          1.4253626288       -1.2517759941       -0.5683956577
 C         -1.5312138270       -1.0736232490       -0.3120120463
 C         -2.8964481192       -0.9746974899       -0.2633499017
 C         -3.7028524317       -2.1775791917       -0.4890890426
 C         -4.7858824555       -2.1489251812       -1.3714096325
 C         -5.5235794723       -3.2897250122       -1.6163136117
 C         -5.2017662137       -4.4802725171       -0.9839924654
 C         -4.1259936963       -4.5232999505       -0.1117485432
 C         -3.3797748482       -3.3859363232        0.1293681634
 C         -5.6168514667        1.6275372222       -0.2579710181
 C         -6.9522810653        1.7811698492       -0.0053616232
 H         -7.4916461379       -1.0652121686        1.7741276913
 H         -5.1068140753       -1.3363168459        1.3188564337
 H         -3.1034410824        2.4248198977       -0.1474029149
 H         -1.5696634253        3.7392304629        0.9866715299
 H         -0.2581096238        5.7752037986        0.5876373187
 H          1.5760982467        5.7680053905       -1.0643680415
 H          2.0609093448        3.7137753013       -2.3465130228
 H          0.7339067921        1.6818951004       -1.9705793203
 H          1.0239106801        1.6308321070        1.1795242359
 H          3.4395029128        1.4190724112        1.3475910188
 H          4.4335766337        1.6835093996       -1.1575532555
 H          5.8095594817        3.7206517185       -1.2125692953
 H          7.8844536296        3.8548255405        0.1209469774
 H          8.5659504839        1.9382697754        1.5213538160
 H          7.1802062453       -0.0910161168        1.6004787734
 H          4.0274460730       -2.5304394275        1.6843561767
 H          5.0762735651       -4.7499757976        1.8663643909
 H          7.1854786517       -5.2266264588        0.6729593690
 H          8.2328779935       -3.4714976210       -0.7129182555
 H          7.1763908235       -1.2586413030       -0.9140357757
 H          3.2863751999       -2.2121490733       -0.9233943379
 H          0.8774849061       -1.9935858208       -1.1284061266
 H         -1.0961557179       -2.0568348311       -0.4119754320
 H         -5.0325029615       -1.2279246656       -1.8781243177
 H         -6.3560148324       -3.2511804322       -2.3036174653
 H         -5.7858595869       -5.3690926714       -1.1697670366
 H         -3.8711955834       -5.4477617084        0.3860748910
 H         -2.5550804253       -3.4207456188        0.8273858423
 H         -5.1075508190        2.3731844127       -0.8500813610
 H         -7.4844763815        2.6485210904       -0.3689755544
  75
       -113.08887478
 N         -9.9721929124        0.9443254264        1.8361441276
 C         -8.8770036449        0.8412189172        1.4898941547
 C         -7.5476827160        0.7138747915        1.0760434627
 C         -6.7959888917       -0.4257960885        1.4177445911
 C         -5.4997346484       -0.5511313376        1.0017941798
 C         -4.8658594952        0.4569861562        0.2337255653
 C         -3.4955969529        0.3312524204       -0.1585582966
 C         -2.6724149319        1.4664854293       -0.2751119086
 C         -1.3098723280        1.3944837521       -0.4212402915
 C         -0.5486607378        2.6113149168       -0.6903524952
 C         -0.8313575966        3.8082314396       -0.0262381146
 C         -0.1179396647        4.9565696550       -0.3057465010
 C          0.8858478685        4.9420467158       -1.2623310260
 C          1.1671738233        3.7662073541       -1.9401675319
 C          0.4627876482        2.6135350589       -1.6586490713
 C         -0.6657073992        0.0970989380       -0.4163292960
 C          0.7383589368       -0.0522256800       -0.2509224464
 C          1.5037885115        0.9030085379        0.4742095339
 C          2.8475273268        0.7580526386        0.6593410845
 C          3.5354962599       -0.3501274399        0.1295968823
 N          4.9008435425       -0.4934813085        0.3096961457
 C          5.7238069155        0.6353736125        0.3749183643
 C          5.4659975015        1.7445876150       -0.4337738199
 C          6.2775480260        2.8588273373       -0.3595364835
 C          7.3553374952        2.8858605456        0.5122446003
 C          7.6167540639        1.7860019812        1.3148775250
 C          6.8095695603        0.6677737964        1.2526158470
 C          5.4615547791       -1.7678378728        0.4486385703
 C          4.7837490207       -2.7632989484        1.1555656463
 C          5.3389697034       -4.0206115000        1.2855123203
 C          6.5727205141       -4.3045329500        0.7205190849
 C          7.2509771628       -3.3181920132        0.0207803587
 C          6.7037740145       -2.0584157206       -0.1189337781
 C          2.7929650435       -1.3162643744       -0.5786257501
 C          1.4459114966       -1.1776435351       -0.7509629555
 C         -1.5128761833       -1.0279005893       -0.5205536440
 C         -2.8757019218       -0.9509805198       -0.4098899932
 C         -3.6807460895       -2.1519934899       -0.6445369251
 C         -4.8231133038       -2.0911172338       -1.4474900202
 C         -5.5627651783       -3.2273339659       -1.7064442342
 C         -5.1844153014       -4.4467137294       -1.1670400042
 C         -4.0511308277       -4.5217476060       -0.3732369964
 C         -3.3034242109       -3.3885369116       -0.1184130566
 C         -5.6304738341        1.6064785931       -0.0776660188
 C         -6.9339088184        1.7291430905        0.3177776388
 H         -7.2549922003       -1.1958063392        2.0210477676
 H         -4.9293995761       -1.4130573937        1.3085090045
 H         -3.1321242348        2.4425421799       -0.2382829183
 H         -1.5954939866        3.8236462595        0.7376650621
 H         -0.3425033057        5.8696145757        0.2262967563
 H          1.4415340130        5.8418370763       -1.4795762721
 H          1.9384762001        3.7509270980       -2.6967979950
 H          0.6696295042        1.7074093322       -2.2088113951
 H          0.9965471392        1.7276210761        0.9478671903
 H          3.3923773993        1.4793712889        1.2508813239
 H          4.6348369570        1.7167104290       -1.1230246983
 H          6.0719551320        3.7089076751       -0.9924381281
 H          7.9865396923        3.7591468194        0.5672574112
 H          8.4488153967        1.8032801617        2.0025053376
 H          7.0025905386       -0.1824041877        1.8905594508
 H          3.8314687329       -2.5341537501        1.6110684216
 H          4.8092415419       -4.7808906774        1.8395313325
 H          7.0036554814       -5.2880017932        0.8260855953
 H          8.2092366531       -3.5343713027       -0.4268723493
 H          7.2245354267       -1.2936357314       -0.6765790897
 H          3.3115416499       -2.1573079044       -1.0160211881
 H          0.9187465731       -1.9125876165       -1.3393147759
 H         -1.0675908281       -2.0001576537       -0.6687370879
 H         -5.1149240717       -1.1472067266       -1.8830765152
 H         -6.4404849738       -3.1630449569       -2.3328872985
 H         -5.7692119312       -5.3327163635       -1.3637939724
 H         -3.7521061407       -5.4686671075        0.0526918407
 H         -2.4338320856       -3.4507901152        0.5206424974
 H         -5.1944207883        2.3837119455       -0.6873192489
 H         -7.5105517004        2.6024892151        0.0481669615
