49
 energy: -80.846287872644 gnorm: 0.000056257413 xtb: 6.7.1 (edcfbbe)
C            5.65987176484334        1.31126827675912        0.64330628275878
C            5.09041595269670       -0.02066128683337        0.14554766612806
C            5.42789686117417       -1.12710492809614        1.14302541278330
C            5.65147595968793       -0.37881738019244       -1.23398555743634
N            3.62071042971685        0.09572233765955        0.04171979859148
C            3.00347131043531        1.01296881865971       -0.75781428197302
O            3.56269520975975        1.83660848089540       -1.45676237395805
C            1.53229740929664        0.87372293523519       -0.66384569927103
C            0.59674374228684        1.65188897199726       -1.33751984207113
C           -0.74740144055773        1.38922726935040       -1.15574186078576
C           -1.17802887865369        0.36429815556929       -0.30286549396285
N           -2.53043773559680        0.10782435588240       -0.13916768056133
C           -3.52304162660296        1.05670706202438        0.07521980191205
C           -3.41604808836219        2.42929070501135        0.24218591295709
C           -4.57568875591264        3.14273479094705        0.48791572694996
C           -5.81340140480290        2.51126488079220        0.57718713120117
C           -5.92087640114417        1.14041964250263        0.44424062275211
C           -4.76944119735903        0.40468362537708        0.19708475779490
C           -4.51748168815891       -1.00318933959352        0.03907735864307
C           -5.34299497120439       -2.11965984078983        0.03036314867049
C           -4.77474169690957       -3.35996026467210       -0.18667468431769
C           -3.40683170898166       -3.48955128393148       -0.41206099651483
C           -2.56579777334246       -2.39098376989425       -0.40743038300044
C           -3.12675401390570       -1.14731200808243       -0.15785687074193
C           -0.23000364738099       -0.41127375007280        0.38426150938525
C            1.09721200442796       -0.13600309377117        0.17802389037153
S            2.53148665069349       -0.92579806655617        0.86863394408127
O            2.62786322711111       -0.71610419205585        2.28386932072912
O            2.66295315207109       -2.27494042245571        0.39838412382440
H            5.44065891884526        2.10581999150022       -0.06464396748982
H            5.22435724806763        1.56632015450939        1.60715126572833
H            6.73696580160671        1.22595422671460        0.75392907204628
H            5.01569738655296       -2.07820485425232        0.81638073683505
H            5.02228025270245       -0.89691354454116        2.12473354444990
H            6.50806661010227       -1.21945638929632        1.22045390062419
H            5.21428049365992       -1.31240594378644       -1.58217108196838
H            5.42435388778737        0.40685517725649       -1.94967450001297
H            6.72944318344267       -0.49523388501302       -1.17006832916330
H            0.93328978613115        2.43399534593245       -2.00003206720424
H           -1.48415276245066        1.96145976754267       -1.69788442332212
H           -2.46169909867889        2.93068745662268        0.20098771667751
H           -4.51762358469502        4.21329726133985        0.61730998046615
H           -6.69658152182511        3.10292197822251        0.76676193540718
H           -6.87606092255716        0.64652598784276        0.53612837337168
H           -6.40625534480566       -2.01511041879225        0.18294737319185
H           -5.39735736595600       -4.24216138529945       -0.19487736191033
H           -2.99095072453600       -4.46844619959908       -0.59941533146565
H           -1.51122267054641       -2.50752901394119       -0.60593724312110
H           -0.53360921818113       -1.18564839463838        1.06960072191512
