  49
        -80.71464839
 C          5.8678142725       -0.1067856143       -1.3654782724
 C          5.1909523375       -0.0159087780        0.0036155369
 C          5.5710066785        1.3020230813        0.6813411070
 C          5.6108223503       -1.1901578359        0.8975732330
 N          3.7419371964       -0.0491871550       -0.1754475883
 C          3.0990668756       -1.1190704270       -0.8102629873
 O          3.7084888891       -2.0360652673       -1.3786820050
 C          1.6898539049       -1.0032231469       -0.6753491710
 C          0.7069176376       -1.8703871123       -1.2263581298
 C         -0.6102710462       -1.5866960603       -1.0532147139
 C         -1.0354705908       -0.4415010945       -0.3023120181
 N         -2.3833451895       -0.1624367922       -0.1540060319
 C         -2.9715327352        1.0776152848       -0.3104607979
 C         -2.3971357290        2.2857823452       -0.6890410764
 C         -3.2268080012        3.3875857012       -0.8004914284
 C         -4.5948567775        3.2924208832       -0.5530716512
 C         -5.1794263385        2.0833744959       -0.2059466710
 C         -4.3697519504        0.9662024009       -0.0902718099
 C         -4.6248982708       -0.4173362013        0.2122972329
 C         -5.7688994889       -1.1335050443        0.5199928480
 C         -5.6490317438       -2.4872405714        0.7983207358
 C         -4.4065433957       -3.1183468825        0.7908897807
 C         -3.2495973386       -2.4239381895        0.4854612118
 C         -3.3667830716       -1.0747828038        0.1694170293
 C         -0.0668349308        0.3971335684        0.2900535187
 C          1.2457677380        0.0972704352        0.1131589757
 S          2.6836454822        0.8839512338        0.7680546543
 O          2.7614677093        2.2633895114        0.3774937006
 O          2.8705367516        0.6092448165        2.1671306982
 H          5.5816918629       -1.0354449520       -1.8539514464
 H          5.5598192974        0.7269814863       -1.9919940452
 H          6.9475380363       -0.0849899872       -1.2454609638
 H          5.1214572707        1.3631313521        1.6680854963
 H          5.2191770854        2.1446642158        0.0926506581
 H          6.6525625039        1.3577702584        0.7781684993
 H          5.0868210556       -1.1314740920        1.8491145714
 H          5.3583128776       -2.1274408078        0.4078848788
 H          6.6822397368       -1.1588206118        1.0763292594
 H          1.0384868467       -2.7137864862       -1.8109553032
 H         -1.3684214522       -2.1842643315       -1.5368964078
 H         -1.3425426663        2.3617504313       -0.9045679925
 H         -2.8052978702        4.3373018071       -1.0911012560
 H         -5.2104742299        4.1739559067       -0.6470026445
 H         -6.2426314681        2.0118371808       -0.0356792061
 H         -6.7314925041       -0.6466133842        0.5479697506
 H         -6.5304553525       -3.0610835220        1.0402247293
 H         -4.3435967998       -4.1668234980        1.0377546126
 H         -2.2864093432       -2.9094418285        0.5132922474
 H         -0.3666333171        1.2176741252        0.9233399322
