  49
        -80.81304920
 C          5.7551671149       -1.2898587191        0.7865164333
 C          5.2300130646       -0.0529035157        0.0513853881
 C          5.8209800558        0.0400119919       -1.3588902426
 C          5.5810616956        1.2068798527        0.8402046895
 N          3.7622699769       -0.1522510242       -0.0545503761
 C          3.1396315648       -1.1675777621       -0.7196513774
 O          3.6888911453       -2.0776704151       -1.3027375868
 C          1.6675710902       -1.0072155270       -0.6342949792
 C          0.7268142412       -1.8414895650       -1.2265199706
 C         -0.6153130604       -1.5545007726       -1.0660031789
 C         -1.0346924075       -0.4529560140       -0.3099339952
 N         -2.3863202686       -0.1749895463       -0.1619158071
 C         -2.9761910459        1.0756680663       -0.2975438309
 C         -2.4099837277        2.2868973826       -0.6649326931
 C         -3.2452465835        3.3847332079       -0.7660226528
 C         -4.6119960719        3.2848114731       -0.5212770532
 C         -5.1853577391        2.0740925451       -0.1862182816
 C         -4.3657842090        0.9587661932       -0.0781895513
 C         -4.6234065712       -0.4251231168        0.2164995415
 C         -5.7763979014       -1.1276482893        0.5392507100
 C         -5.6743893069       -2.4792566188        0.8035874878
 C         -4.4405748586       -3.1227559474        0.7688348852
 C         -3.2794075289       -2.4426175095        0.4494448937
 C         -3.3811245511       -1.0924377392        0.1510452865
 C         -0.0806976451        0.3785118873        0.2956824691
 C          1.2448453959        0.0803922205        0.1096005176
 S          2.6883405287        0.9318111711        0.7080946233
 O          2.7993315901        2.2320842380        0.1226983943
 O          2.8136651864        0.8311006704        2.1294037923
 H          5.3016542446       -1.3563312685        1.7733370259
 H          5.5183382461       -2.1903987087        0.2265309133
 H          6.8338946026       -1.2196231803        0.8984741927
 H          5.4105640165        0.9031210537       -1.8787229998
 H          5.5902199801       -0.8570152924       -1.9265291651
 H          6.9004160270        0.1478266893       -1.2956172165
 H          5.1930237129        2.0915216432        0.3425772139
 H          5.1596714938        1.1635101151        1.8407530710
 H          6.6625426803        1.2917655356        0.9171675589
 H          1.0569714982       -2.6855048454       -1.8125065804
 H         -1.3593826896       -2.1693639157       -1.5498237522
 H         -1.3559229637        2.3774730115       -0.8803243925
 H         -2.8257469921        4.3392985222       -1.0457963533
 H         -5.2298371266        4.1657225975       -0.6078910693
 H         -6.2478953114        1.9894226264       -0.0174123432
 H         -6.7283845055       -0.6216682546        0.5879977282
 H         -6.5586746212       -3.0456726394        1.0534548069
 H         -4.3862546059       -4.1758316755        1.0005156828
 H         -2.3267322114       -2.9502619178        0.4519382439
 H         -0.3799147200        1.2143946977        0.9070945964
