49
 energy: -80.846329566730 gnorm: 0.000068279527 xtb: 6.7.1 (edcfbbe)
C            5.75945408978231       -1.28838106812555        0.78852371497381
C            5.23550218492193       -0.05301414112095        0.05015539313318
C            5.82947156313724        0.04030830237066       -1.35866574152047
C            5.58656733433345        1.20751776040810        0.83813154318621
N            3.76502157853463       -0.15303805593757       -0.05894542144382
C            3.13749976079817       -1.16625947370827       -0.72324413380113
O            3.68766515884733       -2.07914964208322       -1.30944594743796
C            1.66787264646554       -1.00870583786967       -0.63662681289499
C            0.72398764966397       -1.84501682482451       -1.22333083617134
C           -0.61762792886403       -1.55907059902660       -1.05912338322491
C           -1.03773850758614       -0.45298817232724       -0.30838154151295
N           -2.38774306548772       -0.17445960659899       -0.16162978365983
C           -2.97800123855707        1.07665527525992       -0.29546362846334
C           -2.41276712288979        2.28853742537153       -0.66379025869408
C           -3.24835686181494        3.38669122854231       -0.76548450469268
C           -4.61532898352587        3.28639671567379       -0.52043423338731
C           -5.18817276294629        2.07486152084421       -0.18515416281355
C           -4.36807435784195        0.95950210609552       -0.07708825072094
C           -4.62587840726571       -0.42537845521588        0.21619474483374
C           -5.77941579144406       -1.12762178348430        0.53938364395916
C           -5.67798113953021       -2.48002057901006        0.80228646359258
C           -4.44406017058164       -3.12392869505209        0.76607572662327
C           -3.28253499385062       -2.44381589254158        0.44610941825137
C           -3.38364872416116       -1.09296480820829        0.14884516332411
C           -0.08117400879218        0.38070618312158        0.29376632169732
C            1.24328863919588        0.08027616632661        0.10596769268526
S            2.68637810059449        0.92729333294742        0.70462260775569
O            2.80020051341903        2.23570823736461        0.12818636329232
O            2.81243382143599        0.82945677770497        2.13019779287018
H            5.30269640509871       -1.35426102250971        1.77397322166643
H            5.52546840737514       -2.19022075166385        0.22895873743446
H            6.83709703247279       -1.21514399743451        0.90251201714718
H            5.41985062711263        0.90325392791522       -1.87935076171831
H            5.60035619356966       -0.85667973379808       -1.92735613650882
H            6.90807228168187        0.14788198938021       -1.29060874132825
H            5.20182052632134        2.09287876192921        0.33872794184528
H            5.16286580128234        1.16688249885156        1.83815001627018
H            6.66754340148014        1.28858231000653        0.91690997406354
H            1.05241946238195       -2.68985849152329       -1.80833147967710
H           -1.36053527622423       -2.17800037163618       -1.53782208206010
H           -1.35911894271711        2.38042949832795       -0.87921526790090
H           -2.82878081172721        4.34151527164017       -1.04578807699107
H           -5.23368700854048        4.16740388471164       -0.60683842436746
H           -6.25089187927181        1.99101404206282       -0.01684383875102
H           -6.73149245469716       -0.62188956968947        0.58962491959037
H           -6.56282200695696       -3.04611481841552        1.05254484585765
H           -4.38999073607485       -4.17744797378521        0.99704005889805
H           -2.33125193632763       -2.95257115818002        0.44749357403594
H           -0.37623367129227        1.21910077806750        0.90334733495346
