  86
  -133.069653690000       0.321954401950236      !
 O          3.7249282613        4.0008790821       -0.2314945391
 C          3.5731406964        2.7887648215       -0.1373637778
 C          4.6831978141        1.8482349280       -0.4146552587
 C          5.9307274312        2.3787920597       -0.7496009523
 C          7.0033636385        1.5551980120       -1.0132629828
 C          6.8412651558        0.1782873634       -0.9441855536
 C          5.6117416778       -0.3578575164       -0.6149319347
 C          4.5226807744        0.4649987205       -0.3472229153
 C          3.2074185559       -0.1758331230       -0.0112865290
 C          2.1081626200        0.8046308151        0.3094484327
 C          0.8821172613        0.2936979508        0.6873468567
 C         -0.1729894401        1.1204094110        1.0753149031
 N         -1.3731187398        0.5790715342        1.4759213610
 C         -2.5259963133        1.3533954351        1.7160331743
 C         -2.5663832479        2.3070293698        2.7236004169
 C         -3.7358903003        3.0095732457        2.9543503720
 C         -4.8627047781        2.7510727397        2.1927986974
 C         -4.8293284043        1.7837447196        1.2011065858
 C         -3.6666216275        1.0725099140        0.9601196155
 C         -3.4891474944        0.0277952821       -0.1303723605
 C         -4.8120561964       -0.3984757588       -0.7266777026
 C         -5.0924362980       -0.2676618798       -2.0788150267
 C         -6.3171822801       -0.6728296362       -2.5839164867
 C         -7.2754442163       -1.2131161027       -1.7455185633
 C         -7.0031602670       -1.3488345303       -0.3937393184
 C         -5.7815128198       -0.9452768620        0.1106994583
 C         -2.5450898137        0.6230416805       -1.1743005441
 C         -1.6262521636       -0.1762742996       -1.8417369154
 C         -0.7424504625        0.3773557016       -2.7501998096
 C         -0.7634870528        1.7370933533       -3.0048348075
 C         -1.6933546996        2.5367098492       -2.3634382710
 C         -2.5804580085        1.9830915359       -1.4583867424
 C         -2.7717318409       -1.1333438638        0.5389252765
 C         -3.1008812876       -2.4686387768        0.3793638504
 C         -2.3541395574       -3.4515903289        1.0086427912
 C         -1.2849056611       -3.1056034890        1.8170903105
 C         -0.9460208275       -1.7752601169        1.9881932765
 C         -1.6704341189       -0.7922172745        1.3271040093
 C          0.0142767303        2.5090789976        0.9923092575
 C          1.2210552356        3.0164955824        0.5861627159
 C          2.3005840907        2.1863022335        0.2594179758
 C          3.3306752277       -1.1434546445        1.1512113532
 C          3.7317427494       -0.8751884204        2.4408932749
 C          3.7198294154       -1.9108755263        3.3664120040
 C          3.3059334296       -3.1834888751        3.0024503062
 C          2.9020407969       -3.4566680621        1.7049976428
 C          2.9182207392       -2.4297560277        0.7757581079
 C          2.5728904082       -2.4085441111       -0.6374129691
 C          2.1450888598       -3.4146320667       -1.4874418549
 C          1.9313811011       -3.1084508939       -2.8221632424
 C          2.1421089030       -1.8239769783       -3.3003850606
 C          2.5555520879       -0.8063040706       -2.4495252426
 C          2.7632134182       -1.1069600179       -1.1225998469
 H          6.0237780688        3.4536073698       -0.7938625155
 H          7.9626813491        1.9772223440       -1.2725760331
 H          7.6756047221       -0.4760774500       -1.1494141475
 H          5.4851827097       -1.4296115728       -0.5639269687
 H          0.7431549702       -0.7745411383        0.6688851859
 H         -1.6874366287        2.4886192245        3.3234884527
 H         -3.7672946121        3.7554401574        3.7339987532
 H         -5.7728437536        3.3036671490        2.3697003184
 H         -5.7092913059        1.5942669584        0.6055066950
 H         -4.3531333366        0.1517600087       -2.7441005871
 H         -6.5207880648       -0.5640987907       -3.6390652139
 H         -8.2295083816       -1.5276480903       -2.1412836943
 H         -7.7449728831       -1.7701434162        0.2688201781
 H         -5.5704606228       -1.0535652022        1.1650816916
 H         -1.5920636939       -1.2384701401       -1.6498909705
 H         -0.0306883567       -0.2593013726       -3.2517166775
 H         -0.0640034027        2.1713515824       -3.7035242276
 H         -1.7254597112        3.5975754477       -2.5638201954
 H         -3.3024662064        2.6163199946       -0.9646626859
 H         -3.9328731187       -2.7456398531       -0.2499345249
 H         -2.6130539557       -4.4901954358        0.8689340878
 H         -0.7135099243       -3.8700534710        2.3214286761
 H         -0.1259388658       -1.4987680817        2.6334622478
 H         -0.7976207360        3.1795076836        1.2210149332
 H          1.3707740790        4.0829806748        0.5123559456
 H          4.0476128937        0.1181042349        2.7248804026
 H          4.0338330446       -1.7219238345        4.3822332471
 H          3.3004961807       -3.9718799696        3.7407931451
 H          2.5818580394       -4.4494893920        1.4256736625
 H          1.9885256037       -4.4185804258       -1.1218258857
 H          1.6036393111       -3.8816709028       -3.5014614030
 H          1.9848699861       -1.6140207912       -4.3486658344
 H          2.7131859017        0.1967113517       -2.8179283705
  86
  -133.069192630000       0.197654115771607      !
 O          3.7635391128        3.9719670546        0.1002006679
 C          3.5736624652        2.7643557267        0.0191785259
 C          4.6311182994        1.8475074887       -0.4654440030
 C          5.8375679507        2.4008223909       -0.8986295710
 C          6.8561216250        1.6001599444       -1.3680611682
 C          6.6803917004        0.2238820589       -1.4086002653
 C          5.4922266711       -0.3349978766       -0.9795563005
 C          4.4563873424        0.4646926996       -0.5083904244
 C          3.1985186267       -0.1973793126       -0.0279733117
 C          2.0939867549        0.7650959968        0.3293865279
 C          0.8661581889        0.2381754070        0.6778381412
 C         -0.1862894916        1.0451760257        1.1117172962
 N         -1.3941635719        0.4864547692        1.4637421729
 C         -2.5456856559        1.2522062960        1.7352175261
 C         -2.5962849189        2.1399937179        2.8009345300
 C         -3.7639385275        2.8371103165        3.0560148860
 C         -4.8795868068        2.6374870965        2.2609757539
 C         -4.8366811431        1.7345463337        1.2108747509
 C         -3.6751104440        1.0304975805        0.9439619256
 C         -3.4910295405        0.0560041248       -0.2084186246
 C         -4.8148026886       -0.3158956278       -0.8387851034
 C         -5.1029258711       -0.0541962310       -2.1700546530
 C         -6.3339476984       -0.4009998517       -2.7028308739
 C         -7.2903953073       -1.0133939243       -1.9133664185
 C         -7.0106533629       -1.2789953485       -0.5825041559
 C         -5.7835533111       -0.9320452889       -0.0501014891
 C         -2.5320557070        0.7010084681       -1.2081516229
 C         -1.6564591638       -0.0790916032       -1.9523826882
 C         -0.7625944056        0.5095565672       -2.8282108435
 C         -0.7255640546        1.8854366593       -2.9693068540
 C         -1.6091384071        2.6682416899       -2.2473197330
 C         -2.5101220113        2.0800016074       -1.3783629011
 C         -2.7870920052       -1.1508394911        0.3908045486
 C         -3.1158727411       -2.4708531815        0.1322501996
 C         -2.3818095316       -3.4979462372        0.7027544727
 C         -1.3260332809       -3.2128852895        1.5516653359
 C         -0.9867184507       -1.8990395175        1.8201807110
 C         -1.6970403048       -0.8695236628        1.2168364780
 C          0.0115481569        2.4346829894        1.1250266935
 C          1.2250638380        2.9591576374        0.7627022119
 C          2.2976900517        2.1453385552        0.3779018175
 C          3.4697166460       -1.0451052597        1.2042299260
 C          3.9944700266       -0.6445479327        2.4122687857
 C          4.1232243913       -1.5893770584        3.4223183599
 C          3.7242641352       -2.9021989198        3.2210918356
 C          3.1937092239       -3.3068236383        2.0061607780
 C          3.0695662139       -2.3714994834        0.9922136349
 C          2.5830340227       -2.4945865018       -0.3733629155
 C          2.0892865687       -3.5836329418       -1.0715511553
 C          1.7271091246       -3.4112929050       -2.3982879375
 C          1.8611018870       -2.1784246250       -3.0180044544
 C          2.3409392745       -1.0781139951       -2.3185344779
 C          2.6914442486       -1.2433268751       -0.9978681327
 H          5.9433458695        3.4744628897       -0.8526739544
 H          7.7842789497        2.0398758567       -1.7009125517
 H          7.4727383739       -0.4126921591       -1.7740066289
 H          5.3576231019       -1.4066679600       -1.0074782903
 H          0.7218739754       -0.8262288058        0.5960069918
 H         -1.7266304393        2.2751606046        3.4260521161
 H         -3.8028529883        3.5330536056        3.8801861140
 H         -5.7881688349        3.1860554441        2.4572318521
 H         -5.7079121646        1.5898449876        0.5904958186
 H         -4.3652651536        0.4229407576       -2.7970744284
 H         -6.5437787486       -0.1898036669       -3.7410901787
 H         -8.2494719456       -1.2820129096       -2.3303419725
 H         -7.7514816848       -1.7560491029        0.0422648775
 H         -5.5682006721       -1.1379171723        0.9888193097
 H         -1.6668331077       -1.1538399097       -1.8474646766
 H         -0.0900660312       -0.1131743724       -3.3968814428
 H         -0.0171805167        2.3459149173       -3.6418241573
 H         -1.5960387058        3.7426372653       -2.3580511460
 H         -3.1978243525        2.7012418374       -0.8244107597
 H         -3.9384016571       -2.7001957222       -0.5280026233
 H         -2.6399026403       -4.5234127396        0.4859814583
 H         -0.7661210471       -4.0131138246        2.0113060938
 H         -0.1772441777       -1.6701315647        2.4968333861
 H         -0.7962528349        3.0944833240        1.3951862033
 H          1.3841949880        4.0268542159        0.7667607880
 H          4.3003592114        0.3796342834        2.5683690658
 H          4.5382900251       -1.2974976567        4.3755086013
 H          3.8316429462       -3.6191473936        4.0218099296
 H          2.8871533659       -4.3311188988        1.8540588811
 H          1.9912760194       -4.5480262197       -0.5959633056
 H          1.3422571334       -4.2500019611       -2.9596308619
 H          1.5893046476       -2.0749347719       -4.0585765815
 H          2.4419679838       -0.1149295082       -2.7964422544
  86
  -133.068900450000       0.145087244004702      !
 O          3.7832385175        3.8969092118        0.3268345085
 C          3.5509354430        2.7124593839        0.1182199318
 C          4.5445555271        1.8331259335       -0.5406369924
 C          5.6895971533        2.4179090777       -1.0835786472
 C          6.6443773025        1.6502468553       -1.7150473255
 C          6.4666395333        0.2769519403       -1.8063003873
 C          5.3384560114       -0.3132653355       -1.2695040328
 C          4.3639769695        0.4536083343       -0.6408450632
 C          3.1779494578       -0.2315329026       -0.0277578471
 C          2.0663217195        0.7102617573        0.3603826484
 C          0.8397206163        0.1728539519        0.6947787669
 C         -0.2095051544        0.9659720831        1.1611864728
 N         -1.4246477510        0.3987352895        1.4746129311
 C         -2.5726202754        1.1630356356        1.7659197804
 C         -2.6344718069        1.9844934459        2.8829162617
 C         -3.7979908432        2.6817217415        3.1559760528
 C         -4.8977753208        2.5483945991        2.3256828948
 C         -4.8433344597        1.7122761676        1.2220529957
 C         -3.6859994315        1.0080895371        0.9370437740
 C         -3.4929829779        0.0996747623       -0.2662742069
 C         -4.8108737585       -0.2176408799       -0.9383402311
 C         -5.0769714600        0.1313727076       -2.2541153531
 C         -6.3020007449       -0.1710688411       -2.8262662058
 C         -7.2747813529       -0.8247226486       -2.0917932607
 C         -7.0180823969       -1.1751172087       -0.7759711825
 C         -5.7968563283       -0.8728091684       -0.2043764472
 C         -2.5074103396        0.7777072242       -1.2168272958
 C         -1.6737090170        0.0143263895       -2.0246488363
 C         -0.7615074565        0.6237623144       -2.8664044131
 C         -0.6591310444        2.0032057696       -2.9053351969
 C         -1.4980857859        2.7705565512       -2.1167314646
 C         -2.4216636489        2.1626848100       -1.2854586369
 C         -2.8151741591       -1.1502241492        0.2726975437
 C         -3.1518501509       -2.4472409801       -0.0766229425
 C         -2.4405800853       -3.5172397359        0.4412362143
 C         -1.4005219866       -3.2994988470        1.3284790262
 C         -1.0538567191       -2.0094504138        1.6875752517
 C         -1.7397888276       -0.9350288021        1.1365554337
 C         -0.0018207736        2.3511022824        1.2473662359
 C          1.2142688307        2.8860164127        0.9080764468
 C          2.2767931822        2.0862468578        0.4715536349
 C          3.5943062614       -0.9660480383        1.2379487704
 C          4.1905796183       -0.4456621534        2.3642143228
 C          4.4587688352       -1.3023740713        3.4239608358
 C          4.1270331822       -2.6470389704        3.3507283095
 C          3.5246986833       -3.1715674286        2.2179577067
 C          3.2596235793       -2.3242131667        1.1547533705
 C          2.6627157441       -2.5749497170       -0.1481801957
 C          2.1567279358       -3.7333041972       -0.7139932161
 C          1.6455954782       -3.6738896767       -2.0009497741
 C          1.6485991672       -2.4847237802       -2.7142575566
 C          2.1499186870       -1.3187428755       -2.1504632739
 C          2.6458893034       -1.3707478843       -0.8672746787
 H          5.8013467240        3.4878453398       -0.9905278143
 H          7.5256773117        2.1132928361       -2.1328312237
 H          7.2110896292       -0.3338305051       -2.2953858370
 H          5.2045938956       -1.3831252003       -1.3367214156
 H          0.6908946473       -0.8866294134        0.5713902060
 H         -1.7765644429        2.0674971879        3.5329711470
 H         -3.8462765600        3.3248818595        4.0215038082
 H         -5.8033499553        3.0966174923        2.5363032805
 H         -5.7021969474        1.6201826861        0.5749592262
 H         -4.3271975272        0.6429374704       -2.8383147266
 H         -6.4943231915        0.1076034156       -3.8519649188
 H         -8.2286341741       -1.0596931630       -2.5398615094
 H         -7.7721690334       -1.6840094559       -0.1936193001
 H         -5.5999824834       -1.1434213537        0.8233232380
 H         -1.7344765476       -1.0635306678       -1.9973684744
 H         -0.1288657589        0.0149425488       -3.4938534893
 H          0.0651885921        2.4784351345       -3.5501520362
 H         -1.4329076479        3.8482652077       -2.1466567703
 H         -3.0755128149        2.7732265525       -0.6809545769
 H         -3.9629832499       -2.6244363704       -0.7664695352
 H         -2.7043205831       -4.5235457935        0.1532825874
 H         -0.8588744598       -4.1342593991        1.7465644572
 H         -0.2572794828       -1.8327437230        2.3945264844
 H         -0.8039645517        3.0013202247        1.5551893770
 H          1.3801659926        3.9510775121        0.9670801787
 H          4.4437731746        0.6029865950        2.4195510172
 H          4.9304818570       -0.9163744535        4.3153729634
 H          4.3433351510       -3.2939162906        4.1881930256
 H          3.2705802951       -4.2199222016        2.1658765784
 H          2.1583685707       -4.6636018132       -0.1657738636
 H          1.2433560542       -4.5665817884       -2.4569949138
 H          1.2544946120       -2.4676167795       -3.7199696722
 H          2.1537714397       -0.3890950409       -2.6993813262
  86
  -133.068741440000       0.122617736478934      !
 O          3.8323561043        3.7884627821        0.6074661118
 C          3.5449332564        2.6442122528        0.2795429624
 C          4.4575556485        1.8172898663       -0.5437058158
 C          5.5377708619        2.4404791939       -1.1682157830
 C          6.4003460268        1.7219960201       -1.9685409193
 C          6.1934571864        0.3618530618       -2.1476997909
 C          5.1316033225       -0.2677376774       -1.5256824800
 C          4.2488482198        0.4499579787       -0.7282283704
 C          3.1439796781       -0.2648996412       -0.0028826901
 C          2.0343042783        0.6552847029        0.4355825333
 C          0.8003783018        0.1190376901        0.7412882572
 C         -0.2421734368        0.9070137880        1.2334641260
 N         -1.4755800236        0.3487707413        1.4894639368
 C         -2.6173288504        1.1253844485        1.7726022296
 C         -2.6982908594        1.9077393393        2.9164493528
 C         -3.8507096717        2.6290647149        3.1731060011
 C         -4.9220273209        2.5584690772        2.2990708322
 C         -4.8515730255        1.7571075152        1.1710521894
 C         -3.7053452926        1.0282019382        0.9023333531
 C         -3.5085488276        0.1454364096       -0.3183788955
 C         -4.8262202448       -0.1284486489       -1.0111680359
 C         -5.0816521996        0.2768223222       -2.3127789273
 C         -6.3085099416        0.0153089879       -2.9011176122
 C         -7.2941827810       -0.6518387786       -2.1967170809
 C         -7.0491950805       -1.0557927417       -0.8940905988
 C         -5.8261792926       -0.7945554222       -0.3064929749
 C         -2.4936920541        0.8075436467       -1.2486253126
 C         -1.7526391725        0.0283720011       -2.1294267363
 C         -0.8167977215        0.6092883910       -2.9648884694
 C         -0.5939590455        1.9748983440       -2.9215589533
 C         -1.3367531140        2.7583435294       -2.0565802535
 C         -2.2875435572        2.1807179961       -1.2337202187
 C         -2.8623563376       -1.1314012486        0.1971713457
 C         -3.2091215232       -2.4095881893       -0.2079426200
 C         -2.5239658959       -3.5089254146        0.2824977716
 C         -1.4995510301       -3.3401296383        1.1981464104
 C         -1.1440674121       -2.0698242117        1.6137337391
 C         -1.8031519680       -0.9646162049        1.0908870933
 C         -0.0104396243        2.2806824853        1.3996364419
 C          1.2182817692        2.8127464621        1.1018589555
 C          2.2653947722        2.0207218166        0.6202969105
 C          3.7210069080       -0.9183835002        1.2459770827
 C          4.3721227483       -0.3146714527        2.2976516567
 C          4.8139680349       -1.1127533276        3.3449230204
 C          4.6011684019       -2.4831706210        3.3314931732
 C          3.9433361402       -3.0913651610        2.2740037153
 C          3.5018383119       -2.3020358353        1.2247916741
 C          2.8010736467       -2.6419753667       -0.0039862863
 C          2.3341661095       -3.8542685566       -0.4845665851
 C          1.6772398864       -3.8753644102       -1.7047996414
 C          1.4955136042       -2.7111026527       -2.4361604906
 C          1.9623894367       -1.4932090061       -1.9603992231
 C          2.6086099553       -1.4666617668       -0.7443502498
 H          5.6743725226        3.4989953641       -1.0045594040
 H          7.2321680131        2.2135692035       -2.4501178870
 H          6.8647882351       -0.2099697396       -2.7712256810
 H          4.9804320965       -1.3287243062       -1.6597577252
 H          0.6362890632       -0.9307297983        0.5657608573
 H         -1.8636933635        1.9417175455        3.6003616754
 H         -3.9123356364        3.2425778907        4.0590806752
 H         -5.8180558908        3.1272718491        2.4953324267
 H         -5.6892279046        1.7109162123        0.4921749509
 H         -4.3228009362        0.8015046473       -2.8730830571
 H         -6.4922348535        0.3373013612       -3.9156617994
 H         -8.2494130483       -0.8546466040       -2.6573368781
 H         -7.8139487455       -1.5741781456       -0.3344372122
 H         -5.6384416860       -1.1067397039        0.7110217214
 H         -1.9081585310       -1.0398011778       -2.1631968617
 H         -0.2611657271       -0.0086444550       -3.6547506949
 H          0.1484364903        2.4269258864       -3.5626019535
 H         -1.1773296142        3.8256991207       -2.0220295667
 H         -2.8694020263        2.8068967208       -0.5744771727
 H         -4.0088020256       -2.5486961238       -0.9196448532
 H         -2.7952915818       -4.4995621084       -0.0492516557
 H         -0.9772368247       -4.1977824333        1.5938756483
 H         -0.3604087140       -1.9312262564        2.3432108374
 H         -0.8031872231        2.9284683406        1.7350160120
 H          1.4013717349        3.8697257253        1.2231420505
 H          4.5356481233        0.7528516129        2.3061099721
 H          5.3300456919       -0.6604567666        4.1786887580
 H          4.9548464800       -3.0839016503        4.1564232885
 H          3.7820621880       -4.1591629382        2.2679263598
 H          2.4751987916       -4.7642765074        0.0793702867
 H          1.3024756738       -4.8111021643       -2.0928730323
 H          0.9829381751       -2.7541868972       -3.3860195016
 H          1.8196475906       -0.5821881205       -2.5210773062
  86
  -133.068608600000       0.106537930832275      !
 O          3.7643991635        3.8109309273        0.3605375982
 C          3.5107813954        2.6384548498        0.1136072039
 C          4.4576164306        1.7806978601       -0.6376501065
 C          5.5473678855        2.3854952120       -1.2644722834
 C          6.4462972250        1.6380378915       -1.9953029282
 C          6.2664199123        0.2666015090       -2.1037229067
 C          5.1950746447       -0.3446005243       -1.4797197978
 C          4.2775859817        0.4014619441       -0.7500186136
 C          3.1650182535       -0.2942858673       -0.0211998514
 C          2.0404920439        0.6306153025        0.3696660758
 C          0.8188507133        0.0857482814        0.7062196707
 C         -0.2340998699        0.8724613899        1.1757350467
 N         -1.4535254131        0.2998217422        1.4657607548
 C         -2.5951240463        1.0610584591        1.7877462360
 C         -2.6530874119        1.8245473753        2.9453293558
 C         -3.8113866575        2.5167094986        3.2510188031
 C         -4.9101627724        2.4350802484        2.4126001708
 C         -4.8578618395        1.6606539908        1.2647316441
 C         -3.7048564118        0.9640614970        0.9456255621
 C         -3.5036595927        0.1424494585       -0.3184486694
 C         -4.8141227846       -0.1280063600       -1.0244440202
 C         -5.0542175933        0.2770664630       -2.3289269785
 C         -6.2707374946        0.0067654518       -2.9345767878
 C         -7.2599297916       -0.6713530724       -2.2456546109
 C         -7.0276762749       -1.0811374819       -0.9425074635
 C         -5.8150063211       -0.8112095203       -0.3376215113
 C         -2.5170744698        0.9103334091       -1.1973269660
 C         -1.5769955970        0.2424775788       -1.9714052448
 C         -0.6662346143        0.9519776277       -2.7337683073
 C         -0.6751040972        2.3354337953       -2.7299796286
 C         -1.6222496082        3.0074161936       -1.9771202628
 C         -2.5399500976        2.3002083931       -1.2223656289
 C         -2.8371930495       -1.1461613210        0.1340349131
 C         -3.1758747741       -2.4111542497       -0.3166330210
 C         -2.4865671863       -3.5230629711        0.1388260987
 C         -1.4705734075       -3.3814097228        1.0681591517
 C         -1.1226926089       -2.1240879548        1.5285368113
 C         -1.7812443989       -1.0051699228        1.0362287604
 C         -0.0272550888        2.2553850654        1.2871876422
 C          1.1867442086        2.7978557878        0.9498104697
 C          2.2457335098        2.0069689786        0.4908346117
 C          3.7062993188       -0.8961775457        1.2688406899
 C          4.3425445474       -0.2518529575        2.3053862556
 C          4.7375973838       -1.0029325035        3.4047935574
 C          4.4912958653       -2.3667950059        3.4580026505
 C          3.8484931231       -3.0157063016        2.4155949896
 C          3.4556902351       -2.2738395099        1.3136843882
 C          2.7845056779       -2.6632745271        0.0831297568
 C          2.3043780371       -3.8892590451       -0.3467492080
 C          1.6876198561       -3.9631718097       -1.5857936552
 C          1.5631501420       -2.8382389846       -2.3871893851
 C          2.0423154295       -1.6067222218       -1.9610633326
 C          2.6428662596       -1.5250945796       -0.7243571379
 H          5.6625294648        3.4537428381       -1.1574360113
 H          7.2857285984        2.1159308764       -2.4776180228
 H          6.9660040942       -0.3277042994       -2.6728383007
 H          5.0634162679       -1.4139003360       -1.5575584173
 H          0.6750739787       -0.9732383615        0.5770820188
 H         -1.7948249792        1.8684244628        3.5988234694
 H         -3.8567826273        3.1153744302        4.1480486458
 H         -5.8120795189        2.9785881190        2.6495189443
 H         -5.7140277597        1.6130502851        0.6091106640
 H         -4.2907580689        0.8073872882       -2.8778312234
 H         -6.4436731314        0.3302100279       -3.9505049371
 H         -8.2072864390       -0.8803848978       -2.7195751273
 H         -7.7936109345       -1.6122215645       -0.3965797772
 H         -5.6353233779       -1.1316241563        0.6787717879
 H         -1.5496240045       -0.8372805206       -1.9786836578
 H          0.0538572522        0.4189968746       -3.3366648837
 H          0.0469784979        2.8868802498       -3.3134740383
 H         -1.6460208805        4.0872366341       -1.9755761038
 H         -3.2778718728        2.8352105430       -0.6435866923
 H         -3.9710150473       -2.5296118615       -1.0368963902
 H         -2.7503677796       -4.5029216898       -0.2291060920
 H         -0.9479528433       -4.2498705284        1.4390571457
 H         -0.3469538978       -2.0081526776        2.2703317692
 H         -0.8296739426        2.8986675351        1.6092890572
 H          1.3496799001        3.8625335158        1.0220630416
 H          4.5297474999        0.8109612086        2.2624092734
 H          5.2419023508       -0.5187195178        4.2277427295
 H          4.8065135226       -2.9302366918        4.3238625325
 H          3.6606204305       -4.0782120544        2.4620680031
 H          2.4036702674       -4.7694491497        0.2709524612
 H          1.3012456733       -4.9096627220       -1.9342452959
 H          1.0848345518       -2.9214468086       -3.3521044617
 H          1.9470637645       -0.7273187892       -2.5794296218
  86
  -133.068605140000       0.106148570962247      !
 O          3.6541574083        3.7315118999        0.2970077061
 C          3.3836195786        2.5630485644        0.0508263091
 C          4.2578959892        1.7235753890       -0.8027630175
 C          5.2459371002        2.3495302802       -1.5618540374
 C          6.0669613556        1.6167965874       -2.3930891321
 C          5.9107411740        0.2405420742       -2.4680371762
 C          4.9409490222       -0.3918403308       -1.7118155095
 C          4.1003119838        0.3388513029       -0.8820121832
 C          3.1043979848       -0.3652138220       -0.0046681839
 C          1.9715795849        0.5337992872        0.4215027591
 C          0.7711044196       -0.0250868622        0.8046510392
 C         -0.2860898267        0.7572087386        1.2731719888
 N         -1.5085985259        0.1787853487        1.5484614369
 C         -2.6492418388        0.9518280645        1.8508748623
 C         -2.7441884647        1.6546670486        3.0435686493
 C         -3.8987315468        2.3603681676        3.3317065859
 C         -4.9563463565        2.3530549370        2.4382741235
 C         -4.8645027794        1.6447947400        1.2508696687
 C         -3.7145349002        0.9353665448        0.9487767938
 C         -3.4643502488        0.1936011606       -0.3569060492
 C         -4.7408891229       -0.0109672285       -1.1429377945
 C         -4.8940953356        0.4412002527       -2.4451051103
 C         -6.0810538737        0.2266582635       -3.1269415987
 C         -7.1266818472       -0.4430405968       -2.5176570326
 C         -6.9798138608       -0.9033062674       -1.2189406622
 C         -5.7961865561       -0.6901398110       -0.5386192644
 C         -2.4333638223        1.0231240878       -1.1222241282
 C         -1.3676227003        0.4324337991       -1.7877072761
 C         -0.4178275117        1.2156678052       -2.4204095756
 C         -0.5182381200        2.5945417447       -2.4021050902
 C         -1.5935363964        3.1892758153       -1.7649739059
 C         -2.5437226821        2.4094397599       -1.1327477608
 C         -2.8438387421       -1.1354166835        0.0376994041
 C         -3.1790883250       -2.3569215270       -0.5225567854
 C         -2.5437740183       -3.5151467216       -0.1055075080
 C         -1.5867491159       -3.4653860225        0.8931332027
 C         -1.2428049918       -2.2521263250        1.4626166263
 C         -1.8458342136       -1.0858952196        1.0125184975
 C         -0.0872353078        2.1395894844        1.3933373314
 C          1.1109170609        2.6949182640        1.0208753238
 C          2.1565881385        1.9157467355        0.5165310578
 C          3.8120014014       -0.8293705707        1.2627314795
 C          4.4983680091       -0.0684969043        2.1816049369
 C          5.0618925202       -0.7084275856        3.2778028113
 C          4.9323360840       -2.0792711159        3.4437108792
 C          4.2392510548       -2.8455536435        2.5201517816
 C          3.6772682500       -2.2144195169        1.4225299395
 C          2.9146613651       -2.7390976463        0.3005883987
 C          2.4884895906       -4.0249513340        0.0109793911
 C          1.7497661213       -4.2360846568       -1.1424119999
 C          1.4512391434       -3.1857907021       -1.9971326182
 C          1.8776878619       -1.8957218795       -1.7122286818
 C          2.6018100464       -1.6768593840       -0.5603692351
 H          5.3461843148        3.4213281672       -1.4772704683
 H          6.8280601223        2.1103238187       -2.9785946904
 H          6.5508684275       -0.3420305751       -3.1140943790
 H          4.8314802055       -1.4651049845       -1.7641575323
 H          0.6407081354       -1.0885414393        0.7014459997
 H         -1.9151096851        1.6432276735        3.7351946184
 H         -3.9732347253        2.9123947416        4.2562719143
 H         -5.8561771863        2.9056909616        2.6618602906
 H         -5.6878380175        1.6583837187        0.5527995662
 H         -4.0849152473        0.9629215244       -2.9332878107
 H         -6.1858285092        0.5857152283       -4.1402507608
 H         -8.0511862687       -0.6078267489       -3.0505063491
 H         -7.7894964229       -1.4300941050       -0.7355950986
 H         -5.6819082301       -1.0529795897        0.4730340658
 H         -1.2687458622       -0.6428841180       -1.8075899695
 H          0.4110936232        0.7480090016       -2.9307777560
 H          0.2343964146        3.2014106233       -2.8827373730
 H         -1.6893075272        4.2650218112       -1.7544442537
 H         -3.3776451271        2.8831319615       -0.6365331831
 H         -3.9287106519       -2.4040827984       -1.2976857587
 H         -2.8034318164       -4.4596412024       -0.5589266119
 H         -1.1069156534       -4.3706791210        1.2324066977
 H         -0.5131829795       -2.2069829273        2.2570690168
 H         -0.8872280717        2.7734227274        1.7397850631
 H          1.2646058497        3.7612619168        1.0882556501
 H          4.5969966919        0.9989838599        2.0520487997
 H          5.6077208738       -0.1310779014        4.0091074457
 H          5.3793917459       -2.5551050627        4.3040273662
 H          4.1430830815       -3.9128825252        2.6530550080
 H          2.7225493507       -4.8462037927        0.6718345813
 H          1.4032621574       -5.2308078107       -1.3810280989
 H          0.8777102656       -3.3732202189       -2.8929935654
 H          1.6438045256       -1.0779793268       -2.3761023888
