  61
  -75.3698826291000       0.245161178301134      !
 C          3.9710395156       -4.3164894296       -0.0496251400
 C          2.9261473287       -3.2454535639       -0.0008943090
 C          3.0452605689       -2.1577033379        0.8550606458
 C          2.0749877254       -1.1752640638        0.9196356153
 C          2.2291354923       -0.0597598544        1.9051123806
 C          0.9565928330       -1.2184301860        0.0451202123
 B         -0.0036995698        0.0115928639       -0.0044520862
 C         -1.5321077184       -0.3408518007       -0.0318222314
 C         -2.3794542920        0.3555675314       -0.9263556723
 C         -1.8123310243        1.2991772014       -1.9411966343
 C         -3.7492798438        0.1739765454       -0.8654380001
 C         -4.3269541448       -0.7288188088        0.0183803898
 C         -5.8069460308       -0.9606979048        0.0290254231
 C         -3.4844461636       -1.4479557897        0.8620988219
 C         -2.1113130416       -1.2888736149        0.8344112542
 C         -1.2780915144       -2.0811530575        1.7968060611
 C          0.4995196021        1.4582437437       -0.0193407988
 C          1.6227799844        1.8496492613       -0.8187977377
 C          2.2779053338        0.8461511456       -1.7135874409
 C          2.1002511996        3.1400093249       -0.7863694846
 C          1.4992375518        4.1275570064       -0.0045323349
 C          2.0346401692        5.5225285422        0.0291669523
 C          0.3874374184        3.7690482968        0.7637638014
 C         -0.1075203969        2.4862345405        0.7713224012
 C         -1.2790847425        2.1566942620        1.6418249243
 C          0.8088167836       -2.3525323239       -0.7844754126
 C         -0.3637953140       -2.4935035012       -1.7072432251
 C          1.7951854478       -3.3174559287       -0.8148606530
 H          4.6277640712       -4.1598731731       -0.9072880686
 H          4.5815839194       -4.3060615773        0.8503618132
 H          3.5148586250       -5.2990706827       -0.1561274124
 H          3.9023077281       -2.0953312880        1.5122012465
 H          3.0331554806       -0.2676415030        2.6078040330
 H          1.3041998231        0.0968115227        2.4568269395
 H          2.4514460577        0.8715593479        1.3862145235
 H         -1.0273541249        0.8144175064       -2.5192037921
 H         -2.5848968217        1.6527545940       -2.6203459041
 H         -1.3607354589        2.1573530121       -1.4470096991
 H         -4.3844718763        0.7267631094       -1.5444078719
 H         -6.1449207654       -1.2553217045        1.0203512912
 H         -6.3416910333       -0.0634074373       -0.2750100940
 H         -6.0691498962       -1.7600907580       -0.6662808432
 H         -3.9188904166       -2.1487964649        1.5621501792
 H         -0.4724246875       -1.4680290521        2.1898606432
 H         -1.8855725480       -2.4487306935        2.6217113491
 H         -0.8225904773       -2.9367481839        1.3016756250
 H          2.8372397445        0.1196592565       -1.1263101299
 H          2.9594982508        1.3312148647       -2.4090761720
 H          1.5270795285        0.2905441623       -2.2705588129
 H          2.9535666591        3.4064511405       -1.3959096578
 H          1.2256741479        6.2472226030        0.1025759924
 H          2.6792449065        5.6560224434        0.9004450451
 H          2.6234744768        5.7355924099       -0.8603180311
 H         -0.0851370673        4.5260151673        1.3754054258
 H         -2.1657500821        1.9744538778        1.0373366543
 H         -1.0871782919        1.2454178709        2.2030558384
 H         -1.4898110083        2.9696727330        2.3332590905
 H         -0.6163624783       -1.5310210321       -2.1421517057
 H         -1.2413487913       -2.8443525421       -1.1683156395
 H         -0.1456830912       -3.2023294001       -2.5034591499
 H          1.6910035630       -4.1582032251       -1.4873848382
  61
  -75.3698395317000       0.234231611480587      !
 C          3.6847626947       -4.5733205355        0.2009879004
 C          2.7767352753       -3.3836110166        0.1396628025
 C          2.9812378138       -2.2707967011        0.9499065391
 C          2.1682129560       -1.1542251705        0.8788905712
 C          2.4441447388       -0.0062480995        1.8025823186
 C          1.0618111474       -1.1455853742        0.0062163421
 B         -0.0091133539       -0.0013664498       -0.0016580141
 C         -1.5132080398       -0.2892679951       -0.0165714530
 C         -2.4139666520        0.4587089218       -0.8431866128
 C         -1.8754549723        1.5164214918       -1.7539699102
 C         -3.7651275087        0.2059003437       -0.8258388017
 C         -4.3176796668       -0.8005159032       -0.0277936112
 C         -5.7909952522       -1.0521272866       -0.0382713587
 C         -3.4534816750       -1.5503039276        0.7713326793
 C         -2.0977402494       -1.3138093033        0.7956950659
 C         -1.2283463539       -2.1259150969        1.7026057083
 C          0.5764086335        1.4479539759        0.0089740350
 C          1.6367669883        1.8587531903       -0.8267422392
 C          2.3451777236        0.8887020030       -1.7232770078
 C          1.9886216703        3.1938411661       -0.8898924179
 C          1.3632408503        4.1595044464       -0.1054951444
 C          1.7842520808        5.5959969455       -0.1520059892
 C          0.3539557149        3.7456039202        0.7578780084
 C         -0.0212786892        2.4198791809        0.8538200924
 C         -1.0743507698        2.0280491422        1.8428296414
 C          0.8839273161       -2.2526782662       -0.8606996316
 C         -0.2068187355       -2.2526655572       -1.8861459304
 C          1.7148939584       -3.3518083664       -0.7580611314
 H          4.1860482128       -4.7216606620       -0.7557838496
 H          4.4411134012       -4.4460063299        0.9715062408
 H          3.1142741612       -5.4763208346        0.4182208584
 H          3.7994998317       -2.2804176236        1.6572231468
 H          2.9654581724        0.7938815599        1.2805947285
 H          3.0600698892       -0.3243002301        2.6410471573
 H          1.5123608244        0.4068415574        2.1770762739
 H         -1.0076057696        1.1432630097       -2.2927170555
 H         -2.6325595788        1.8382513712       -2.4659266526
 H         -1.5442865165        2.3815369125       -1.1819750380
 H         -4.4250702164        0.7865388775       -1.4566646128
 H         -6.1462782779       -1.2015965654       -1.0579357026
 H         -6.0420024422       -1.9297181076        0.5525155583
 H         -6.3257555087       -0.1941728977        0.3720030783
 H         -3.8675725790       -2.3301856464        1.3965506828
 H         -0.5537795553       -1.4784720646        2.2576145077
 H         -1.8290168265       -2.7055319596        2.4002020271
 H         -0.6073070077       -2.8090644715        1.1259922902
 H          2.8367384824        1.4090208834       -2.5431417792
 H          1.6408410434        0.1670635039       -2.1263559864
 H          3.1000152177        0.3309467544       -1.1722774446
 H          2.7737433016        3.4986276097       -1.5686135929
 H          0.9194693728        6.2431681383       -0.2945875037
 H          2.2616428709        5.8841254667        0.7854722512
 H          2.4880531554        5.7686410614       -0.9625753423
 H         -0.1265808281        4.4780980124        1.3924839728
 H         -1.9857223293        1.7335080917        1.3250801152
 H         -0.7505968444        1.1708011783        2.4300481841
 H         -1.3055023512        2.8525959798        2.5137953140
 H         -0.1789313485       -1.3382336501       -2.4761986230
 H         -1.1801758944       -2.2887318202       -1.4000241588
 H         -0.1164947865       -3.1077180637       -2.5524656069
 H          1.5557255191       -4.1976551958       -1.4132776272
  61
  -75.3697825109000       0.220516230981406      !
 C          3.9523174531       -4.3458387980       -0.0468544570
 C          2.9215363251       -3.2605823436        0.0004966308
 C          3.0391562945       -2.1828935525        0.8676410203
 C          2.0743352598       -1.1934202637        0.9306797807
 C          2.2253769632       -0.0878402912        1.9282436056
 C          0.9656861082       -1.2240850807        0.0478457621
 B          0.0030226399        0.0092861391        0.0046074328
 C         -1.5205227764       -0.3462420581       -0.0311253011
 C         -2.3660203707        0.3624694329       -0.9217953035
 C         -1.7920621727        1.3089560167       -1.9294041924
 C         -3.7370772478        0.1938032453       -0.8583284185
 C         -4.3203697874       -0.7128042829        0.0174448941
 C         -5.8045950164       -0.9052769695        0.0653725363
 C         -3.4811255163       -1.4488826054        0.8527366253
 C         -2.1080150096       -1.3031993201        0.8231897019
 C         -1.2787664595       -2.1185068724        1.7691863373
 C          0.5139122164        1.4531824740       -0.0060569241
 C          1.6362701486        1.8511884974       -0.8020431877
 C          2.3181297458        0.8462670487       -1.6754932233
 C          2.0868346311        3.1516691210       -0.7920475987
 C          1.4657560636        4.1403398564       -0.0274726493
 C          1.9450370870        5.5559418068       -0.0461786755
 C          0.3625165650        3.7723518754        0.7481464337
 C         -0.1048186838        2.4796285887        0.7788994915
 C         -1.2625583046        2.1386237587        1.6631729256
 C          0.8187512112       -2.3452910193       -0.7962852243
 C         -0.3437709842       -2.4688321593       -1.7345937992
 C          1.7989649489       -3.3172432847       -0.8255161966
 H          4.6760199401       -4.2308615539        0.7562932941
 H          3.4844586135       -5.3257289441        0.0402476159
 H          4.4855986091       -4.3174515759       -0.9979640860
 H          3.8898119738       -2.1310083489        1.5338588844
 H          2.4386588658        0.8509696405        1.4195627354
 H          3.0333088015       -0.2984690663        2.6255100802
 H          1.3017677258        0.0552465255        2.4861429751
 H         -2.5545555653        1.6443038455       -2.6290616728
 H         -1.3692223858        2.1790772233       -1.4299745623
 H         -0.9833589280        0.8361442007       -2.4836222013
 H         -4.3685874695        0.7587725719       -1.5307541091
 H         -6.0552388003       -1.9571880583        0.1881597048
 H         -6.2258176291       -0.3619904284        0.9127597185
 H         -6.2748785359       -0.5342264301       -0.8420788777
 H         -3.9220060862       -2.1552760183        1.5430844425
 H         -0.8280357580       -2.9666911537        1.2573266463
 H         -0.4693491200       -1.5174690888        2.1728037839
 H         -1.8877942051       -2.4984037152        2.5872270657
 H          1.5827301108        0.2715858768       -2.2337616439
 H          2.8824791878        0.1364872876       -1.0730803404
 H          2.9996269776        1.3336097264       -2.3695479675
 H          2.9377526105        3.4235941761       -1.4024367739
 H          1.2831437792        6.1698874173       -0.6599745765
 H          1.9451233847        5.9765387186        0.9584314996
 H          2.9491565596        5.6229741111       -0.4583186757
 H         -0.1222061872        4.5291194521        1.3506402146
 H         -1.4863896955        2.9576619649        2.3433252857
 H         -2.1489233242        1.9273358051        1.0677447314
 H         -1.0466541110        1.2407887806        2.2374471908
 H         -0.5953675396       -1.4977493968       -2.1507104784
 H         -1.2255560811       -2.8357986306       -1.2128743902
 H         -0.1144239710       -3.1589868870       -2.5442576105
 H          1.6981728003       -4.1487403786       -1.5099053887
  61
  -75.3688991005000       8.658711126942016E-002 !
 C          3.9259278335       -4.3500880186       -0.0493654145
 C          2.9161029023       -3.2477518992       -0.0192710550
 C          3.0848192974       -2.1235059809        0.7829191293
 C          2.1324455320       -1.1277856508        0.8464291192
 C          2.3413392761        0.0259065075        1.7727552780
 C          0.9595997272       -1.1810745137        0.0253176154
 B         -0.0049834991        0.0175109002       -0.0120178208
 C         -1.5626816945       -0.2755424437       -0.0188497797
 C         -2.4163356435        0.3387191942       -0.9466245214
 C         -1.8932095002        1.2619290787       -2.0073396545
 C         -3.7684858083        0.0337648888       -0.9445635186
 C         -4.3152537455       -0.8648931300       -0.0372254852
 C         -5.7801407154       -1.1835594026       -0.0673574791
 C         -3.4653869296       -1.4614265975        0.8815144927
 C         -2.1080943105       -1.1777340035        0.9081777410
 C         -1.2539584439       -1.8133406371        1.9635676398
 C          0.4468522234        1.4917392902       -0.0399832628
 C          1.5820242984        1.8530970605       -0.8380951325
 C          2.1523511229        0.8698415970       -1.8073984582
 C          2.1636914877        3.0974760836       -0.7072326335
 C          1.6251430525        4.0716624515        0.1264465710
 C          2.2273940484        5.4360135781        0.2343506493
 C          0.4595307263        3.7563948286        0.8381297675
 C         -0.1423390847        2.5239715999        0.7467307883
 C         -1.3878877603        2.2621290830        1.5345878176
 C          0.7809184459       -2.3596817268       -0.7582370263
 C         -0.4349348846       -2.5198243392       -1.6171068518
 C          1.7448873254       -3.3399771977       -0.7806041388
 H          3.5267250064       -5.2448109896        0.4313319169
 H          4.1737734711       -4.6130521615       -1.0774940962
 H          4.8367149531       -4.0595546773        0.4689838288
 H          3.9736195798       -2.0448224078        1.3948088742
 H          1.4289584403        0.2421635702        2.3229050870
 H          2.5888409609        0.9233953176        1.2069984391
 H          3.1482789146       -0.1767848735        2.4733866660
 H         -1.1438342527        1.9317263994       -1.5969330901
 H         -1.4215417084        0.6864076417       -2.8062041681
 H         -2.6982608692        1.8479546743       -2.4452300174
 H         -4.4124228261        0.4939412312       -1.6816863333
 H         -6.0035196055       -1.8503815425       -0.9012903337
 H         -6.0895753609       -1.6735382112        0.8527120662
 H         -6.3691766269       -0.2775415489       -0.1985251830
 H         -3.8730947959       -2.1464774235        1.6125503800
 H         -0.5174601892       -2.4719107886        1.5091624622
 H         -0.7080698967       -1.0528973890        2.5198595402
 H         -1.8586441552       -2.3912442033        2.6593063230
 H          2.6786822483        0.0777401624       -1.2757746264
 H          2.8483821857        1.3524975896       -2.4897886203
 H          1.3558706557        0.3949596949       -2.3752217808
 H          3.0403706870        3.3342465000       -1.2953577049
 H          1.5489937459        6.1862699895       -0.1734625390
 H          2.4077849605        5.6909344559        1.2785669873
 H          3.1683168136        5.4913497202       -0.3071411584
 H          0.0243726973        4.5141091708        1.4754378396
 H         -2.2532421264        2.2207512852        0.8762137044
 H         -1.3212804560        1.3009056124        2.0359735769
 H         -1.5504545881        3.0452026004        2.2720771513
 H         -0.6571039790       -1.5879257359       -2.1286409396
 H         -1.3039488434       -2.7678624888       -1.0108287747
 H         -0.2880470891       -3.3099027081       -2.3505982884
 H          1.6028201646       -4.2114812617       -1.4054441152
  61
  -75.3685486074000       5.975548486415536E-002 !
 C          3.5760270834       -4.6625224586        0.3246720047
 C          2.7048755068       -3.4512594253        0.2179814722
 C          2.9846459428       -2.2940243873        0.9517573121
 C          2.2274729721       -1.1505859197        0.8308717057
 C          2.5941630459        0.0540343074        1.6398098270
 C          1.0768425830       -1.1379776336       -0.0054792195
 B          0.0220555796       -0.0070243249       -0.0129692214
 C         -1.4951246870       -0.2514316710       -0.0181408608
 C         -2.4018072346        0.4862419221       -0.8385613811
 C         -1.8927940613        1.5882717711       -1.7144248274
 C         -3.7391088323        0.1667236412       -0.8743295250
 C         -4.2755744857       -0.8641410298       -0.0960775649
 C         -5.7333240122       -1.1895867676       -0.1548318357
 C         -3.4083417573       -1.5760857321        0.7307187739
 C         -2.0657353379       -1.2766441152        0.8042486634
 C         -1.1957278088       -2.0399728117        1.7508213218
 C          0.5576819989        1.4827900220       -0.0091430282
 C          1.5548408489        1.9168995340       -0.8944193980
 C          2.1635524629        1.0066678999       -1.9210325640
 C          1.9376120578        3.2491936647       -0.9002402054
 C          1.3750811383        4.1792161193       -0.0342191874
 C          1.8130032053        5.6127347188       -0.0683530113
 C          0.4042315140        3.7386407565        0.8517811089
 C         -0.0005722574        2.4130599301        0.8864866492
 C         -1.0152459976        1.9913674160        1.9054090841
 C          0.8511687871       -2.2927569280       -0.8219378356
 C         -0.2441832334       -2.2830612512       -1.8385956863
 C          1.6292531672       -3.4200564781       -0.6663994458
 H          2.9838164678       -5.5725240414        0.2461121151
 H          4.3103159496       -4.6733110552       -0.4832542129
 H          4.1153104842       -4.6706077582        1.2692452172
 H          3.8268769276       -2.3001991482        1.6300961099
 H          1.7051718598        0.4978454981        2.0786533834
 H          3.0514086191        0.8114309671        1.0059329058
 H          3.2967329373       -0.2078420470        2.4281383005
 H         -0.9803874078        1.2755967190       -2.2147677093
 H         -2.6370079476        1.8670514568       -2.4575611855
 H         -1.6472988619        2.4674467449       -1.1220389525
 H         -4.4018796174        0.7247174340       -1.5221996787
 H         -5.9352320266       -1.8572877789       -0.9949864697
 H         -6.0578509553       -1.6885227595        0.7558431881
 H         -6.3272141137       -0.2886274659       -0.2976227055
 H         -3.8100856805       -2.3670774034        1.3500516902
 H         -0.5638885132       -1.3607227938        2.3187542487
 H         -1.7945387887       -2.6361719698        2.4362880793
 H         -0.5307963343       -2.7037842704        1.1995448069
 H          2.1959629869       -0.0152061128       -1.5581449746
 H          3.1706926109        1.3290748370       -2.1769232386
 H          1.5659808039        1.0238233708       -2.8348764461
 H          2.6841363054        3.5765242599       -1.6110846227
 H          1.4817458835        6.0864472763       -0.9931081953
 H          1.3956577035        6.1661018005        0.7692904722
 H          2.8990183024        5.6843490385       -0.0291591335
 H         -0.0307289462        4.4387933919        1.5521070650
 H         -0.6718147242        1.1105378083        2.4442400241
 H         -1.2076058868        2.7901200119        2.6185677581
 H         -1.9514682520        1.7265685254        1.4183414654
 H         -0.1609109528       -3.1342175763       -2.5109861426
 H         -0.2149088712       -1.3609081200       -2.4150313940
 H         -1.2152966437       -2.3202866731       -1.3462947518
 H          1.4231369789       -4.2929691581       -1.2713102267
  61
  -75.3684472350000       5.367724843801978E-002 !
 C          3.9589566289       -4.2265000066        1.1351440932
 C          2.9418411377       -3.1603686111        0.8578979883
 C          1.8624897421       -2.9630636213        1.7081292572
 C          0.8925279783       -2.0048461980        1.4511951681
 C         -0.1953187431       -1.8211280789        2.4692965916
 C          1.0028001838       -1.1889652649        0.3176331337
 B         -0.0215802139       -0.0184765762        0.0186565170
 C         -1.5277205549       -0.3550587204        0.0921046812
 C         -2.4193917607        0.6127998667        0.6609316835
 C         -1.8713962394        1.7838347588        1.4099457221
 C         -3.7844120049        0.4797911459        0.5076535318
 C         -4.3452555098       -0.6318000943       -0.1113920625
 C         -5.8256630493       -0.7930773923       -0.2477981075
 C         -3.4795969547       -1.6304804928       -0.5781908799
 C         -2.1138889377       -1.5312754077       -0.4558841354
 C         -1.2544122833       -2.6437517032       -0.9693417784
 C          0.5296899191        1.3767109420       -0.3197039864
 C         -0.0599884633        2.1542103282       -1.3685134428
 C         -1.1453140386        1.5629105188       -2.2091437629
 C          0.3541987875        3.4454157010       -1.6086754345
 C          1.3943476553        4.0295651606       -0.8859144598
 C          1.8524318588        5.4183126121       -1.1977247299
 C          2.0085470763        3.2665205010        0.1098867807
 C          1.6122014480        1.9780887263        0.3890057065
 C          2.2975070134        1.2284384635        1.4884866402
 C          2.0819336731       -1.3975352506       -0.5611309126
 C          2.2106022434       -0.6037211095       -1.8256420537
 C          3.0322270306       -2.3639536586       -0.2748892896
 H          4.0504227626       -4.4052986459        2.2042602757
 H          3.6619843415       -5.1631710821        0.6607983149
 H          4.9323382878       -3.9440644647        0.7398652425
 H          1.7804501646       -3.5608835921        2.6057114646
 H         -0.4966230104       -2.7779705502        2.8914585617
 H         -1.0594366978       -1.3398123780        2.0232608900
 H          0.1629603948       -1.1956274639        3.2895651742
 H         -1.0890229599        1.4626484385        2.0941224653
 H         -1.4184951361        2.4949399994        0.7197124311
 H         -2.6553728638        2.2921046167        1.9673119033
 H         -4.4366266350        1.2408516090        0.9149567796
 H         -6.3541893041        0.0104309143        0.2593987817
 H         -6.1106733695       -0.7841950825       -1.3009123049
 H         -6.1495998264       -1.7455242608        0.1715268121
 H         -3.9081751769       -2.5080797831       -1.0425819927
 H         -0.4210909236       -2.2434867362       -1.5394343307
 H         -0.8342292938       -3.2111788733       -0.1415315635
 H         -1.8312359904       -3.3203971277       -1.5961578999
 H         -2.0607425500        1.4636698979       -1.6272331892
 H         -0.8701027478        0.5630310326       -2.5363750805
 H         -1.3496005608        2.1851281164       -3.0777587212
 H         -0.1191575840        4.0186699121       -2.3946631274
 H          2.3472876807        5.4453675224       -2.1699051315
 H          1.0046475728        6.1012766107       -1.2420703927
 H          2.5532619582        5.7753722193       -0.4469426898
 H          2.8165903445        3.7073601125        0.6781992054
 H          2.9114553101        1.8968314678        2.0882263367
 H          1.5614163905        0.7442931945        2.1241870842
 H          2.9329134718        0.4451783213        1.0806250628
 H          1.2815903108       -0.6356351303       -2.3917857278
 H          3.0165218020       -0.9872073432       -2.4474493648
 H          2.4124863218        0.4400559508       -1.5956517518
 H          3.8510219169       -2.5176099306       -0.9646273347
  61
  -75.3682667063000       4.434299258434382E-002 !
 C          3.7940065439       -4.4553471976        0.1121186752
 C          2.8200043137       -3.3213512917        0.1015253297
 C          3.0327640655       -2.1765702553        0.8728520768
 C          2.1583892291       -1.1140108281        0.8542019837
 C          2.4261211239        0.0669590052        1.7333128439
 C          0.9856693689       -1.1413275040        0.0369093515
 B         -0.0284310038        0.0106811647        0.0130514218
 C         -1.5669051190       -0.2081013423        0.0202241808
 C         -2.4692739682        0.4877487502       -0.8236514546
 C         -2.0078768322        1.6411283255       -1.6587708293
 C         -3.7757070206        0.0620268507       -0.9378562918
 C         -4.2774837890       -1.0008307558       -0.1846115289
 C         -5.7061980492       -1.4319836915       -0.2961708401
 C         -3.4168998022       -1.6306878371        0.7113837091
 C         -2.1048576253       -1.2329259784        0.8583526557
 C         -1.2447654295       -1.8883223733        1.8915393636
 C          0.4698131996        1.5071430112       -0.0183706379
 C          1.5077687142        1.8551877221       -0.9120069025
 C          2.0141827092        0.8709412728       -1.9211899416
 C          2.0687868051        3.1189930429       -0.8664812088
 C          1.6088016371        4.0891540286        0.0145479608
 C          2.1968415785        5.4677208458        0.0174445652
 C          0.5585501642        3.7543737572        0.8596773847
 C         -0.0275652619        2.4978457672        0.8418385539
 C         -1.1236281854        2.2369789063        1.8343872753
 C          0.7951565751       -2.3126313775       -0.7650301493
 C         -0.3822741911       -2.3983804346       -1.6833489397
 C          1.6827668607       -3.3630342023       -0.7066028082
 H          4.4500637326       -4.3962407430       -0.7586693192
 H          4.4149904315       -4.4268840270        1.0045863872
 H          3.2754524827       -5.4117883787        0.0700510052
 H          3.9073859206       -2.1335894493        1.5082820227
 H          2.7569178942        0.9175754950        1.1402792705
 H          3.1942020757       -0.1636418026        2.4685132801
 H          1.5149451964        0.3692992209        2.2426683105
 H         -1.0235269654        1.4377579066       -2.0705118370
 H         -2.7069745598        1.8373395789       -2.4691784257
 H         -1.9233296154        2.5397086027       -1.0511336964
 H         -4.4359729311        0.5698966326       -1.6275053692
 H         -6.1961142656       -1.3946743591        0.6769930130
 H         -6.2531302711       -0.7938660397       -0.9858355611
 H         -5.7646782921       -2.4604781460       -0.6545280732
 H         -3.8010002075       -2.4281423604        1.3333388373
 H         -1.8424006894       -2.4943705957        2.5690833414
 H         -0.5029059049       -2.5270165482        1.4143486528
 H         -0.7003989833       -1.1391016440        2.4630160683
 H          2.5544983845        0.0678193330       -1.4238578370
 H          2.6811681760        1.3509364763       -2.6339435284
 H          1.1860231111        0.4151303823       -2.4603232978
 H          2.8677154920        3.3659922579       -1.5525485185
 H          2.0373302556        5.9545147976        0.9769164643
 H          3.2649731485        5.4318192027       -0.1873722237
 H          1.7282284575        6.0800402560       -0.7546328314
 H          0.1890440340        4.4904740163        1.5608160435
 H         -1.5519487152        1.2524686209        1.6826982233
 H         -0.7337438315        2.3043918405        2.8513264261
 H         -1.9147027642        2.9796879576        1.7364227490
 H         -0.4930562315       -1.4745233555       -2.2449863354
 H         -1.2989146424       -2.5318308112       -1.1114429338
 H         -0.2777212741       -3.2323470968       -2.3737218546
 H          1.5096347735       -4.2408957930       -1.3149842570
  61
  -75.3682118634000       4.184282011255503E-002 !
 C          3.6077906580       -4.6099466732        0.3212062082
 C          2.7231776069       -3.4112203005        0.1923583711
 C          2.9947701655       -2.2493973969        0.9249845977
 C          2.2121179156       -1.1225047422        0.8252267575
 C          2.5657403782        0.0800214306        1.6442147787
 C          1.0488857257       -1.1242308906        0.0039854676
 B         -0.0012922859        0.0069021379       -0.0056359567
 C         -1.5205040781       -0.2307769996       -0.0028019080
 C         -2.4365241674        0.4966843889       -0.8210868921
 C         -1.9545717623        1.6395178961       -1.6594261816
 C         -3.7577162013        0.1250744015       -0.8935130205
 C         -4.2721532484       -0.9426250398       -0.1464128167
 C         -5.7198875021       -1.3024903293       -0.2430709196
 C         -3.4025987170       -1.6261358499        0.6980704777
 C         -2.0743807392       -1.2730484707        0.8113873381
 C         -1.2024679543       -1.9985771525        1.7838313128
 C          0.5369178818        1.4966969796       -0.0114863151
 C          1.5292698884        1.9027304963       -0.9167322916
 C          2.0788152152        0.9584623388       -1.9444113346
 C          1.9678827390        3.2166972621       -0.9133779321
 C          1.4587658039        4.1558145318       -0.0247025583
 C          1.9517947803        5.5717360296       -0.0467551926
 C          0.4806150798        3.7453816274        0.8680630865
 C          0.0186327021        2.4376753120        0.8918706465
 C         -0.9940495664        2.0446250168        1.9250592354
 C          0.8267106501       -2.2853010167       -0.8031193004
 C         -0.2941142948       -2.3040899969       -1.7909335492
 C          1.6278367542       -3.4004204748       -0.6644645256
 H          4.6552910436       -4.3292185831        0.2164172066
 H          3.4858090960       -5.0633519017        1.3062822212
 H          3.3665466831       -5.3559458439       -0.4321676512
 H          3.8496178365       -2.2451014738        1.5876293146
 H          3.2894837342       -0.1766643256        2.4146873089
 H          1.6757046522        0.4937119579        2.1083030063
 H          2.9915190242        0.8599739903        1.0164462487
 H         -2.7002324765        1.9158641410       -2.4018071825
 H         -1.7434728981        2.5082880619       -1.0393677772
 H         -1.0281077653        1.3725615990       -2.1599318705
 H         -4.4281459323        0.6665904505       -1.5472398259
 H         -5.9783948272       -1.5648292992       -1.2689100979
 H         -5.9568478807       -2.1450106865        0.4008590378
 H         -6.3449779588       -0.4575897239        0.0451791856
 H         -3.7881102789       -2.4346497233        1.3049394396
 H         -0.5159307140       -2.6591119320        1.2551057484
 H         -0.5933260356       -1.2940328745        2.3451867877
 H         -1.7973011075       -2.5943922561        2.4728580550
 H          2.8449131727        1.4396871638       -2.5474190029
 H          1.2835470399        0.6177139479       -2.6059410592
 H          2.5033153103        0.0797198335       -1.4698425925
 H          2.7155743814        3.5250415585       -1.6315768622
 H          1.6491956247        6.1019483781        0.8530224736
 H          3.0375155767        5.6000557274       -0.1226992734
 H          1.5433696290        6.1003998575       -0.9090149667
 H          0.0843469688        4.4551304205        1.5815646396
 H         -1.8871724605        1.6471012479        1.4505423689
 H         -0.5947816774        1.2618344016        2.5688665955
 H         -1.2709207186        2.8946399577        2.5440523718
 H         -0.3092696744       -1.3804081743       -2.3646926284
 H         -1.2505377712       -2.3715949147       -1.2732545535
 H         -0.2044512168       -3.1507756368       -2.4680966968
 H          1.4210873276       -4.2766545306       -1.2644239478
  61
  -75.3671694392000       1.388532196837969E-002 !
 C          3.3970732480       -4.7397742355        0.3848608662
 C          2.6006158581       -3.4870932356        0.2106595578
 C          2.9604785976       -2.3148198654        0.8910065332
 C          2.2414139985       -1.1509771008        0.7691657802
 C          2.6730053427        0.0649577194        1.5265882124
 C          1.0546528134       -1.1099153002       -0.0268059750
 B          0.0437947009        0.0460133629       -0.0000729912
 C         -1.4883154137       -0.1937834959        0.0222531601
 C         -2.4025864336        0.4720758291       -0.8344869623
 C         -1.9500499789        1.6125754333       -1.6927998780
 C         -3.7007659409        0.0245203556       -0.9431224437
 C         -4.1840028642       -1.0407805008       -0.1766935950
 C         -5.5946467207       -1.5125631150       -0.3356956214
 C         -3.3172882509       -1.6379275205        0.7312031524
 C         -2.0107520759       -1.2129317327        0.8717000039
 C         -1.1333714282       -1.8629784736        1.8922728425
 C          0.5301860494        1.5481425919       -0.0120026764
 C          1.5179350849        1.9714121147       -0.9182977856
 C          2.0592892034        1.0531216524       -1.9730711965
 C          1.9745227474        3.2810775772       -0.8823896982
 C          1.4653727596        4.2068363319        0.0150722546
 C          1.9399684085        5.6289489864        0.0285623058
 C          0.4768849522        3.7845137951        0.8972634737
 C         -0.0010866097        2.4859038490        0.8900495994
 C         -1.0305192856        2.0884923427        1.9059650953
 C          0.7634017130       -2.2823327775       -0.8037123936
 C         -0.3632299570       -2.2647564705       -1.7847875762
 C          1.4997322211       -3.4355971713       -0.6399132085
 H          4.4532493402       -4.5576409433        0.1872061768
 H          3.3129326872       -5.0997074819        1.4115114051
 H          3.0448919440       -5.5213696584       -0.2840984040
 H          3.8314456570       -2.3384540838        1.5318551839
 H          3.0134032751        0.8392857730        0.8426080772
 H          3.4800329654       -0.1734151958        2.2156346309
 H          1.8346798045        0.4790928992        2.0814323823
 H         -1.8337904765        2.5173404848       -1.0990572997
 H         -0.9806975871        1.3887074830       -2.1283532429
 H         -2.6679429126        1.8097347814       -2.4862463370
 H         -4.3713146443        0.5056537680       -1.6421739047
 H         -5.6981920933       -2.0678758963       -1.2697487008
 H         -5.8813992204       -2.1678482680        0.4833547710
 H         -6.2847002364       -0.6711251124       -0.3742234175
 H         -3.6826481946       -2.4379364822        1.3611165878
 H         -0.4558555589       -2.5645078406        1.4060960366
 H         -0.5171531923       -1.1218914298        2.3951485517
 H         -1.7236520853       -2.4045541983        2.6284829530
 H          1.3417015898        0.9516348335       -2.7895245660
 H          2.2312471036        0.0615833554       -1.5635717794
 H          2.9881282339        1.4390036561       -2.3871103445
 H          2.7292198878        3.5916713789       -1.5922385548
 H          2.8357654143        5.7454540508       -0.5764773476
 H          1.1687846803        6.2893625466       -0.3699272602
 H          2.1591629851        5.9505045335        1.0457078356
 H          0.0829914194        4.4878485170        1.6184568347
 H         -1.9631632213        1.8126122961        1.4211010469
 H         -0.6877001474        1.2229118235        2.4695497536
 H         -1.2259257147        2.9030893806        2.6000126948
 H         -0.2766226780       -3.0879386740       -2.4911869908
 H         -0.3811116374       -1.3212263379       -2.3240753275
 H         -1.3164631592       -2.3547826355       -1.2649109007
 H          1.2340912379       -4.3169051871       -1.2086161472
