  61
        -75.79956461
 C          5.1909528944       -2.7495590584       -0.0570655895
 C          3.8534021907       -2.0779822323       -0.0073050315
 C          3.5978999073       -1.0294170463        0.8658596803
 C          2.3548393457       -0.4257067472        0.9310150221
 C          2.1211735844        0.6596365521        1.9348499144
 C          1.3232218180       -0.8248194728        0.0444974049
 B         -0.0003077579        0.0097330872        0.0046657762
 C         -1.3132635742       -0.8406854270       -0.0377975978
 C         -2.3477718897       -0.4549609528       -0.9274269519
 C         -2.1271785618        0.6360511244       -1.9282125285
 C         -3.5806844352       -1.0785091714       -0.8692241776
 C         -3.8234091866       -2.1343691230       -0.0000919957
 C         -5.1547133195       -2.8185603894        0.0420854986
 C         -2.7854451296       -2.5476265102        0.8339964097
 C         -1.5428556430       -1.9452103521        0.8095987802
 C         -0.4875899737       -2.4370636415        1.7539418882
 C         -0.0087886885        1.5413611393        0.0032175090
 C          0.9133317963        2.3008438120       -0.7870799892
 C          1.8963899249        1.5916214512       -1.6636157568
 C          0.8966550897        3.6769783920       -0.7688146584
 C         -0.0235776671        4.3921580933       -0.0010432527
 C         -0.0522023448        5.8865057336       -0.0107825764
 C         -0.9378550750        3.6675173585        0.7691061706
 C         -0.9396353049        2.2927543163        0.7915759288
 C         -1.9144643349        1.5743829734        1.6703454126
 C          1.5658575830       -1.9243974497       -0.8059765225
 C          0.5150859477       -2.4288093038       -1.7486275191
 C          2.8174233227       -2.5066121431       -0.8371835361
 H          5.8319221053       -2.4010504175        0.7489812853
 H          5.0826277665       -3.8305101753        0.0233937958
 H          5.6842442261       -2.5364604681       -1.0063057092
 H          4.3798569157       -0.6964353650        1.5350531040
 H          2.0044100740        1.6182332858        1.4317912000
 H          2.9518312235        0.7309715158        2.6335759570
 H          1.2030254016        0.4780053786        2.4905419138
 H         -2.9573349242        0.6974656611       -2.6285293131
 H         -2.0247399329        1.5949417679       -1.4228716375
 H         -1.2054396467        0.4685116843       -2.4823221395
 H         -4.3654293383       -0.7568460137       -1.5406853153
 H         -5.0343128964       -3.8939007992        0.1585443969
 H         -5.7361207144       -2.4552131048        0.8909659282
 H         -5.7217814987       -2.6233105527       -0.8649009080
 H         -2.9617824247       -3.3657529404        1.5192129754
 H          0.2244647395       -3.0792983408        1.2390751481
 H          0.0698439258       -1.5998008216        2.1632929697
 H         -0.9328992633       -3.0057389717        2.5680272920
 H          1.3998565780        0.8051630065       -2.2272401460
 H          2.6670910959        1.1113830654       -1.0631412102
 H          2.3733302347        2.2851908742       -2.3529217461
 H          1.6058750406        4.2247634640       -1.3750474229
 H         -0.8821977736        6.2436020379       -0.6234547475
 H         -0.1958427971        6.2762014027        0.9960183372
 H          0.8703312402        6.2922238817       -0.4193571641
 H         -1.6510319282        4.2116811894        1.3740165514
 H         -2.4033696202        2.2650490909        2.3540728758
 H         -2.6761022491        1.0789035925        1.0709889640
 H         -1.4078575578        0.7993388333        2.2405816397
 H         -0.0501112984       -1.5978943906       -2.1604383118
 H         -0.1908685591       -3.0759367858       -1.2316606475
 H          0.9656753443       -2.9955668130       -2.5611693393
 H          3.0051284469       -3.3189482253       -1.5262495101
  61
        -75.79948362
 C          5.1986280410       -2.7155865223       -0.0596222772
 C          3.8526168053       -2.0621778744       -0.0086017519
 C          3.5951245123       -1.0035731133        0.8534313574
 C          2.3493156877       -0.4083369373        0.9200685248
 C          2.1152249130        0.6874686317        1.9118786347
 C          1.3127538329       -0.8225632044        0.0417725835
 B         -0.0074028321        0.0096806409       -0.0044029138
 C         -1.3259887036       -0.8395344711       -0.0385031824
 C         -2.3580675225       -0.4659781726       -0.9320663767
 C         -2.1429214190        0.6200552420       -1.9401208221
 C         -3.5854397065       -1.1012541793       -0.8764767317
 C         -3.8241798212       -2.1516726090        0.0007383367
 C         -5.1381050118       -2.8712806261        0.0054404344
 C         -2.7888948534       -2.5479358585        0.8433526974
 C         -1.5508257130       -1.9329169078        0.8208848466
 C         -0.4996436745       -2.4018570698        1.7817594686
 C         -0.0240285911        1.5413272285       -0.0100854735
 C          0.9011813784        2.2949264546       -0.8038853737
 C          1.8586301590        1.5781149547       -1.7018382738
 C          0.9132214603        3.6705192452       -0.7631550715
 C          0.0122263884        4.3913357798        0.0219363630
 C          0.0433295792        5.8849700840        0.0646721484
 C         -0.9133078792        3.6727576130        0.7847854451
 C         -0.9444059729        2.2980998974        0.7840250587
 C         -1.9361093418        1.5859144843        1.6490399830
 C          1.5589494432       -1.9346470777       -0.7942366874
 C          0.5045706155       -2.4589697645       -1.7214709877
 C          2.8139263297       -2.5081567891       -0.8265413764
 H          5.7645061880       -2.3405874544       -0.9143497863
 H          5.7684322997       -2.5043612862        0.8423515203
 H          5.1024389230       -3.7939471269       -0.1727404361
 H          4.3795533460       -0.6585049536        1.5136231817
 H          2.9412647112        0.7600303180        2.6160316956
 H          1.1912679369        0.5181122919        2.4614525418
 H          2.0095063906        1.6421379305        1.3985925994
 H         -1.2394288584        0.4333801219       -2.5181576388
 H         -2.9887555434        0.6950852500       -2.6198661761
 H         -2.0093742032        1.5774803229       -1.4399934790
 H         -4.3695133370       -0.7922610362       -1.5545576780
 H         -5.3574919346       -3.2689454360        0.9941209482
 H         -5.9448435428       -2.2063912258       -0.2955828610
 H         -5.1131292662       -3.7080275656       -0.6948890424
 H         -2.9610695197       -3.3587160072        1.5383223360
 H          0.0501797993       -1.5544298804        2.1805994026
 H         -0.9476796893       -2.9584592549        2.6027789543
 H          0.2193894816       -3.0495489730        1.2835979660
 H          2.6302932230        1.0805452012       -1.1166028136
 H          2.3364343285        2.2695812756       -2.3925898891
 H          1.3411192569        0.8043686644       -2.2641146857
 H          1.6265537136        4.2139525029       -1.3685600005
 H         -0.9634021386        6.2923000454        0.1393042018
 H          0.6035220957        6.2236935384        0.9386928403
 H          0.5262476323        6.2902701714       -0.8217970177
 H         -1.6151335934        4.2211693426        1.3988833250
 H         -2.7078596200        1.1177173176        1.0407752611
 H         -1.4475114316        0.7901727997        2.2060858870
 H         -2.4106453593        2.2752510017        2.3440590427
 H         -0.0586031871       -1.6363620430       -2.1521215036
 H         -0.2028839290       -3.0896032832       -1.1871980891
 H          0.9508986765       -3.0471810753       -2.5206991226
 H          3.0015614890       -3.3304157394       -1.5038019812
  61
        -75.79940365
 C          5.0157945598       -3.0560323470        0.1886907546
 C          3.7585349001       -2.2438612609        0.1307289018
 C          3.5729857784       -1.1325152467        0.9475235283
 C          2.4298985807       -0.3569195370        0.8797915290
 C          2.2995026228        0.8110132901        1.8104504106
 C          1.3870753939       -0.7182314297        0.0035875371
 B         -0.0081096583       -0.0043623892       -0.0016948208
 C         -1.3257475933       -0.7846098462       -0.0230188140
 C         -2.4255774719       -0.3809282670       -0.8485753468
 C         -2.2760327577        0.8021902084       -1.7519822189
 C         -3.6112501510       -1.0765532185       -0.8369560020
 C         -3.7912390006       -2.2154776800       -0.0460585620
 C         -5.0922155124       -2.9511824955       -0.0626545217
 C         -2.7251603267       -2.6330795149        0.7518813150
 C         -1.5297043452       -1.9515063794        0.7818997025
 C         -0.4377637296       -2.4266375919        1.6873081748
 C          0.0518578196        1.5575190946        0.0185256263
 C          0.9114331363        2.3082773614       -0.8115525785
 C          1.9076775259        1.6409964560       -1.7109151176
 C          0.7903336821        3.6839836290       -0.8664775528
 C         -0.1261618377        4.3759425998       -0.0790040177
 C         -0.2165626566        5.8703803169       -0.1165275642
 C         -0.9366675225        3.6393972690        0.7788799147
 C         -0.8407785192        2.2643817820        0.8665699107
 C         -1.7001166154        1.5330053777        1.8500626997
 C          1.5958029111       -1.8148329981       -0.8697614528
 C          0.5708244525       -2.1780285485       -1.8987294855
 C          2.7498235191       -2.5681340354       -0.7702567640
 H          5.5388967377       -3.0199804880       -0.7672216474
 H          5.6833375546       -2.6847512125        0.9623253455
 H          4.7846305772       -4.1001938792        0.3992774897
 H          4.3452435166       -0.8687168658        1.6574323081
 H          2.5196273533        1.7435867306        1.2944096242
 H          2.9856945856        0.7152848577        2.6492119332
 H          1.2824061435        0.8817857789        2.1841027315
 H         -1.3324105248        0.7483324016       -2.2898803469
 H         -3.0964969175        0.8528828046       -2.4646764610
 H         -2.2582014405        1.7248387950       -1.1743344016
 H         -4.4280644176       -0.7499394299       -1.4668326369
 H         -5.3745826058       -3.2059432810       -1.0842455527
 H         -5.0318618905       -3.8654987644        0.5226510742
 H         -5.8864927552       -2.3275902940        0.3504263502
 H         -2.8513896567       -3.5109130485        1.3716060663
 H         -0.0230813734       -1.5923723131        2.2479306871
 H         -0.8074692278       -3.1796863915        2.3798662577
 H          0.3786898381       -2.8555240024        1.1090988786
 H          2.1949633437        2.3020411053       -2.5264080917
 H          1.4899261631        0.7259141123       -2.1201009539
 H          2.8061259149        1.3685413824       -1.1604336887
 H          1.4266554526        4.2408145666       -1.5410196914
 H         -1.2492583644        6.1872364551       -0.2584815565
 H          0.1338290830        6.2974616669        0.8240109048
 H          0.3881723320        6.2761410879       -0.9238802813
 H         -1.6377118384        4.1619479154        1.4157985779
 H         -2.4571896081        0.9503381996        1.3278016873
 H         -1.1058661833        0.8325314796        2.4337741307
 H         -2.1977455200        2.2264147818        2.5246383786
 H          0.2880611032       -1.3046283185       -2.4838299261
 H         -0.3333859125       -2.5446143267       -1.4159688886
 H          0.9462783230       -2.9478686323       -2.5692783297
 H          2.8874020088       -3.4138874211       -1.4304639110
  61
        -75.79915531
 C          4.9556062837       -3.1173483287        0.3082871210
 C          3.7174130900       -2.2883361611        0.1829740206
 C          3.5784964815       -1.1077182355        0.9226899491
 C          2.4605319165       -0.3119359561        0.8264141924
 C          2.3849006321        0.9342324563        1.6529755137
 C          1.3676783586       -0.7025142186        0.0013874745
 B         -0.0035467299        0.0060909214       -0.0056031154
 C         -1.3524476446       -0.7321222570       -0.0089941656
 C         -2.4596985379       -0.3529141932       -0.8263557103
 C         -2.3922877680        0.8907341932       -1.6569902807
 C         -3.5768257588       -1.1496059075       -0.9050767493
 C         -3.7001359758       -2.3330054022       -0.1653832228
 C         -4.9402727434       -3.1613590304       -0.2686854441
 C         -2.6515237550       -2.6867607890        0.6782598782
 C         -1.5215632029       -1.9053677999        0.7977946095
 C         -0.4566602733       -2.2986435593        1.7691786655
 C         -0.0017716279        1.5901284486       -0.0017245847
 C          0.7955211664        2.3138305545       -0.9015442675
 C          1.6337141345        1.6178419460       -1.9324657194
 C          0.7631318938        3.6986455002       -0.8897270220
 C         -0.0351034893        4.4043347710        0.0022977233
 C         -0.0507958612        5.9036632174       -0.0105684084
 C         -0.8175286753        3.6813801402        0.8896600702
 C         -0.8092820809        2.2943732247        0.9049615315
 C         -1.6302615279        1.5752150054        1.9327245270
 C          1.5529296136       -1.8652284178       -0.8126403948
 C          0.5059649383       -2.2564740829       -1.8041898748
 C          2.6842393263       -2.6439152211       -0.6773452237
 H          5.8462269817       -2.4977783634        0.2084177879
 H          4.9931782332       -3.5913092254        1.2905192581
 H          4.9822547743       -3.8963229354       -0.4498513955
 H          4.3805239900       -0.8182008351        1.5881315820
 H          3.1518389750        0.9331314205        2.4244185177
 H          1.4067705096        1.0191494189        2.1163672508
 H          2.5221099685        1.8161370698        1.0307821124
 H         -3.1865425197        0.9027371240       -2.4003085283
 H         -2.4887173728        1.7758286925       -1.0316057471
 H         -1.4295392528        0.9564374380       -2.1558946072
 H         -4.3902268466       -0.8631753135       -1.5580779567
 H         -5.0933516995       -3.4894458736       -1.2967514189
 H         -4.8786528637       -4.0382767247        0.3699497500
 H         -5.8149594768       -2.5799099175        0.0220434381
 H         -2.7411458051       -3.5817707765        1.2795325245
 H          0.4136937384       -2.6843389970        1.2391661907
 H         -0.1228763112       -1.4328833546        2.3362800856
 H         -0.8153788378       -3.0649349242        2.4530635277
 H          2.1922796457        2.3337993104       -2.5303881916
 H          1.0017066071        1.0319393454       -2.5983990051
 H          2.3301743631        0.9319262596       -1.4612258298
 H          1.3630821260        4.2464174856       -1.6038238441
 H         -0.5162304249        6.2945068138        0.8910430279
 H          0.9612459899        6.2985178549       -0.0828197985
 H         -0.6130656809        6.2680252382       -0.8713131051
 H         -1.4316743018        4.2105617248        1.6056546451
 H         -2.3353426759        0.9016015068        1.4531775148
 H         -0.9902552467        0.9699921350        2.5736310323
 H         -2.1794609614        2.2773900847        2.5553525683
 H          0.1795537574       -1.3890185866       -2.3730430886
 H         -0.3717041560       -2.6471152529       -1.2900004547
 H          0.8779682492       -3.0185685439       -2.4855792922
 H          2.7872642259       -3.5346825027       -1.2826569405
  61
        -75.79907407
 C          5.1675238410       -2.7625695086       -0.0593222604
 C          3.8439345263       -2.0676971514       -0.0267536332
 C          3.6207847290       -0.9576067545        0.7818294963
 C          2.3873247674       -0.3437829876        0.8474434419
 C          2.1918418404        0.8068772049        1.7804439197
 C          1.3029371412       -0.7863005283        0.0222690430
 B         -0.0106055694        0.0148591629       -0.0119424487
 C         -1.3769080527       -0.7885015120       -0.0253497677
 C         -2.3869874328       -0.4941822192       -0.9526707454
 C         -2.2061898831        0.5580043446       -2.0068575064
 C         -3.5558759982       -1.2391625369       -0.9565812502
 C         -3.7670380696       -2.2753374508       -0.0557173059
 C         -5.0373106311       -3.0712158554       -0.0922570064
 C         -2.7665160670       -2.5542057912        0.8626492335
 C         -1.5856231424       -1.8276600475        0.8951892624
 C         -0.5680229829       -2.1426647093        1.9500132706
 C         -0.0848761132        1.5551243424       -0.0307572115
 C          0.8617778894        2.2844480364       -0.8232916165
 C          1.7327210712        1.5583683795       -1.7958548466
 C          0.9873240111        3.6514861966       -0.6840590569
 C          0.1495264058        4.3806124601        0.1529383009
 C          0.2538256783        5.8676376746        0.2699050570
 C         -0.8412709669        3.6848598916        0.8591873158
 C         -0.9899259781        2.3219897179        0.7594143995
 C         -2.0741294589        1.6489661480        1.5418553187
 C          1.5351033651       -1.9510245534       -0.7679946025
 C          0.4464985941       -2.5084183865       -1.6316230655
 C          2.7741945511       -2.5466548257       -0.7923484539
 H          5.0944152657       -3.7424922636        0.4154077123
 H          5.4911170476       -2.9198492394       -1.0879994253
 H          5.9253657730       -2.1837960628        0.4634832887
 H          4.4295883068       -0.5861628971        1.3969980423
 H          1.2594445378        0.6979657901        2.3287543181
 H          2.1213917311        1.7385230174        1.2201788831
 H          3.0188328965        0.8853245120        2.4826202018
 H         -1.7285600755        1.4395787134       -1.5905383263
 H         -1.5664185295        0.1810986100       -2.8071790816
 H         -3.1616034608        0.8392812797       -2.4442930522
 H         -4.3166844211       -1.0199165618       -1.6933776528
 H         -5.0205117810       -3.7692636513       -0.9303745244
 H         -5.1636379043       -3.6425611146        0.8242379558
 H         -5.8982792958       -2.4175372171       -0.2206073818
 H         -2.9189784926       -3.3412414442        1.5887786274
 H          0.3486115619       -2.5100618791        1.4945697286
 H         -0.3127426109       -1.2456139732        2.5120282406
 H         -0.9420686306       -2.8954060690        2.6407664505
 H          2.4955876775        0.9882229075       -1.2666651675
 H          2.2249605672        2.2523593430       -2.4734603381
 H          1.1449418690        0.8451688754       -2.3687242541
 H          1.7327073665        4.1747644699       -1.2680977973
 H         -0.6381009708        6.3461553279       -0.1361872452
 H          0.3358508683        6.1623213822        1.3160153171
 H          1.1210584453        6.2416956551       -0.2682390424
 H         -1.5082057091        4.2465204585        1.4990236781
 H         -2.8734519703        1.3208431222        0.8804737520
 H         -1.6864701881        0.7641482939        2.0384360552
 H         -2.4933111936        2.3262267792        2.2828865833
 H         -0.0775764391       -1.7038276864       -2.1390089160
 H         -0.2878788933       -3.0398102806       -1.0294655679
 H          0.8532963292       -3.1976049461       -2.3687438358
 H          2.9365689345       -3.4109888723       -1.4221806723
  61
        -75.79899914
 C          5.1575930303       -2.6416689956        1.1162486544
 C          3.8392260813       -1.9816026494        0.8437665745
 C          2.7580312570       -2.1650323278        1.6947619974
 C          1.5205940479       -1.5906333535        1.4421030344
 C          0.4362460775       -1.7904539985        2.4609035714
 C          1.3465363639       -0.7806685148        0.3123041918
 B         -0.0140246276       -0.0247720636        0.0185690552
 C         -1.3171958511       -0.8516586991        0.0902918108
 C         -2.4830420988       -0.2452785791        0.6634389292
 C         -2.3627413159        1.0388535777        1.4178765775
 C         -3.7226642079       -0.8318542085        0.5093875207
 C         -3.8749904271       -2.0649678761       -0.1148122678
 C         -5.2135935514       -2.7172772612       -0.2521352473
 C         -2.7230406690       -2.7095995997       -0.5860766352
 C         -1.4713727495       -2.1544638440       -0.4631510949
 C         -0.2867849653       -2.9080613139       -0.9815958976
 C          0.0319153076        1.4761169904       -0.3133290776
 C         -0.7876523800        2.0126497954       -1.3586369368
 C         -1.6099410874        1.0925196983       -2.2020990227
 C         -0.8353608396        3.3688641618       -1.5928305981
 C         -0.0533303862        4.2674858397       -0.8672748559
 C         -0.0928563387        5.7306541606       -1.1726638368
 C          0.7843412352        3.7530857742        0.1250945407
 C          0.8479549870        2.4053514486        0.3982595971
 C          1.7481492812        1.9271745481        1.4943775845
 C          2.4312985564       -0.6077882110       -0.5672753453
 C          2.2818329505        0.1882103585       -1.8281207869
 C          3.6530468991       -1.1966896102       -0.2853491132
 H          5.3057216277       -2.7835989054        2.1845455411
 H          5.1945529953       -3.6214954902        0.6375805417
 H          5.9773275008       -2.0446810458        0.7223859312
 H          2.8844980126       -2.7592286616        2.5895859496
 H          0.4772463490       -2.7946288077        2.8786408522
 H         -0.5404282744       -1.6281417329        2.0169729130
 H          0.5628072258       -1.0841747280        3.2840726764
 H         -1.5168498692        0.9985061479        2.1006694905
 H         -2.1782938708        1.8642876512        0.7309633378
 H         -3.2716887280        1.2492910609        1.9774704693
 H         -4.5934188522       -0.3382964313        0.9200941773
 H         -5.9821883727       -2.1423418386        0.2586734701
 H         -5.4862964845       -2.8008183538       -1.3052322452
 H         -5.1953816059       -3.7249652715        0.1627824071
 H         -2.8298990306       -3.6784372988       -1.0545355084
 H          0.3610199584       -2.2468545145       -1.5497476377
 H          0.3018637430       -3.3033429399       -0.1563430730
 H         -0.6013961303       -3.7372891040       -1.6115753867
 H         -2.4368906897        0.6867149196       -1.6207602120
 H         -1.0129714009        0.2462733714       -2.5338744349
 H         -2.0140463114        1.6126194224       -3.0678789674
 H         -1.4759559741        3.7514464050       -2.3762410902
 H          0.3622271323        5.9278615639       -2.1446500818
 H         -1.1218458350        6.0864882684       -1.2139828532
 H          0.4468034573        6.3006073885       -0.4201688630
 H          1.3962609660        4.4389597272        0.6955186478
 H          2.1004478436        2.7613225319        2.0972476259
 H          1.2203237461        1.2196698298        2.1277640221
 H          2.6106023223        1.4070405189        1.0830088597
 H          1.4176610622       -0.1538454915       -2.3945173603
 H          3.1690936407        0.1028964600       -2.4515807816
 H          2.1187904800        1.2376921477       -1.5933264120
 H          4.4745235137       -1.0610911003       -0.9756846130
  61
        -75.79895860
 C          4.9434744443       -3.1776324396        0.3117848398
 C          3.7136878243       -2.3323920717        0.2086360889
 C          3.5839624282       -1.1533298753        0.9494971230
 C          2.4844091765       -0.3332118681        0.8321733510
 C          2.4203144767        0.9194118284        1.6487381864
 C          1.3986463243       -0.7059309240       -0.0079407278
 B          0.0231484719        0.0009409512       -0.0129326446
 C         -1.3215563846       -0.7428555277       -0.0244784174
 C         -2.4234040813       -0.3508520086       -0.8439845471
 C         -2.3165797674        0.8638041909       -1.7122586157
 C         -3.5733809956       -1.1042051497       -0.8859249394
 C         -3.7300088435       -2.2606023553       -0.1149731246
 C         -4.9912751886       -3.0601871906       -0.1803334522
 C         -2.6740023329       -2.6417991416        0.7109138592
 C         -1.5122845478       -1.9057708730        0.7905260413
 C         -0.4364233604       -2.3351096227        1.7359225405
 C          0.0224841513        1.5840622256        0.0006201551
 C          0.8148465280        2.3356834573       -0.8789925321
 C          1.6972627173        1.6917500985       -1.9083989376
 C          0.7237301197        3.7188850328       -0.8764366556
 C         -0.1217232634        4.3980672741       -0.0073594064
 C         -0.1951972431        5.8953619523       -0.0323924003
 C         -0.8871424964        3.6492690299        0.8730307092
 C         -0.8190689047        2.2647438777        0.8993210942
 C         -1.6322959316        1.5180519798        1.9125847896
 C          1.5785496998       -1.8638519111       -0.8312889626
 C          0.5460259982       -2.2194806104       -1.8515371061
 C          2.6922652535       -2.6619154202       -0.6791572114
 H          4.6946079286       -4.2339291304        0.2263991932
 H          5.6390958905       -2.9341139526       -0.4937279509
 H          5.4523511979       -3.0083871562        1.2580992674
 H          4.3775888620       -0.8780422648        1.6306054103
 H          1.4329590238        1.0331827033        2.0869650302
 H          2.5948393715        1.7907911008        1.0204369925
 H          3.1689981043        0.9061372507        2.4380049796
 H         -1.3515283653        0.8817245927       -2.2112067487
 H         -3.1102317662        0.8786000930       -2.4563833732
 H         -2.3841813396        1.7705066519       -1.1143805120
 H         -4.3851061725       -0.7997044591       -1.5330257732
 H         -4.9539601693       -3.7516339301       -1.0247032122
 H         -5.1288427300       -3.6451363140        0.7265808515
 H         -5.8550366896       -2.4127726394       -0.3203077958
 H         -2.7849077342       -3.5258991994        1.3246779383
 H         -0.0727679571       -1.4855055697        2.3095748677
 H         -0.7988147507       -3.1030878641        2.4161979276
 H          0.4147854102       -2.7310715799        1.1833439744
 H          2.0733954124        0.7390435387       -1.5508534873
 H          2.5360075450        2.3377868447       -2.1592000238
 H          1.1304298230        1.5111075463       -2.8241312003
 H          1.3162071742        4.2840786113       -1.5830275663
 H         -0.6660866563        6.2345501567       -0.9557134027
 H         -0.7764302733        6.2695080029        0.8067868998
 H          0.8023116437        6.3303365210        0.0108130072
 H         -1.5344836059        4.1563992499        1.5756182036
 H         -1.0115375738        0.8023126473        2.4478612493
 H         -2.0847916943        2.2000427296        2.6293410470
 H         -2.4228311352        0.9548021382        1.4209862389
 H          0.9135778421       -2.9879753220       -2.5281698044
 H          0.2619953418       -1.3383939046       -2.4229514162
 H         -0.3557342938       -2.5864478353       -1.3626908835
 H          2.7948137203       -3.5493111513       -1.2893949612
  61
        -75.79887110
 C          5.0787839194       -2.9074256117        0.1000255788
 C          3.7782469178       -2.1703463013        0.0924839714
 C          3.5897890240       -1.0258977526        0.8705947769
 C          2.4071967268       -0.3222347786        0.8549233206
 C          2.2580828302        0.8742259333        1.7411810879
 C          1.3139686929       -0.7401858228        0.0338540736
 B         -0.0303827575        0.0003395723        0.0130200463
 C         -1.4037985065       -0.7266731765        0.0142367763
 C         -2.4875952751       -0.3724846765       -0.8286974146
 C         -2.4432464703        0.8740694781       -1.6561827951
 C         -3.5724550531       -1.2148604728       -0.9492440070
 C         -3.6853688659       -2.3894242075       -0.2032718937
 C         -4.8834437103       -3.2783460764       -0.3215822870
 C         -2.6632989125       -2.6959937176        0.6920047974
 C         -1.5637267654       -1.8782243403        0.8451824082
 C         -0.5336204809       -2.2098259762        1.8775094837
 C         -0.0684725077        1.5772683772       -0.0088295601
 C          0.7912124959        2.2617647703       -0.8973558270
 C          1.6022102365        1.5134121301       -1.9102218617
 C          0.8909102344        3.6405893888       -0.8433113235
 C          0.1285098569        4.3921976617        0.0414721297
 C          0.2148048059        5.8884102899        0.0535876323
 C         -0.7471835641        3.7163120882        0.8815253742
 C         -0.8729906958        2.3356644645        0.8551281924
 C         -1.8169881170        1.7129049083        1.8428517466
 C          1.5323765962       -1.9018664439       -0.7749419290
 C          0.4546216248       -2.3757741676       -1.6973633087
 C          2.7232598039       -2.5898510203       -0.7193876669
 H          5.6769984775       -2.6242799690       -0.7683891991
 H          5.6524233190       -2.6757426797        0.9945593210
 H          4.9149191917       -3.9826995279        0.0512188958
 H          4.3974384672       -0.6930741490        1.5089620544
 H          2.2818420955        1.7902069359        1.1537476574
 H          3.0580526706        0.9129495610        2.4775189841
 H          1.2977965873        0.8469405777        2.2493149378
 H         -1.4477457263        1.0186628821       -2.0659459719
 H         -3.1665788878        0.8268150543       -2.4676963158
 H         -2.6687571674        1.7444453514       -1.0434769959
 H         -4.3649567084       -0.9564693126       -1.6382097337
 H         -5.3581131542       -3.4151251402        0.6502398043
 H         -5.6134322646       -2.8590199175       -1.0095130272
 H         -4.5896764132       -4.2636439335       -0.6856284328
 H         -2.7552506444       -3.5801882899        1.3084785250
 H         -0.8913814276       -2.9866023270        2.5499333080
 H          0.3812605104       -2.5565524766        1.3992101176
 H         -0.2758626034       -1.3240030657        2.4546843279
 H          2.3820803580        0.9377707952       -1.4155252389
 H          2.0679596594        2.1952952058       -2.6183148146
 H          0.9780116272        0.8073222382       -2.4543632259
 H          1.5596978642        4.1477849440       -1.5255574575
 H         -0.1012369986        6.2865362637        1.0151550119
 H          1.2321760685        6.2176866501       -0.1480969942
 H         -0.4326646273        6.3104951724       -0.7166490253
 H         -1.3449687470        4.2794455603        1.5854482096
 H         -1.8863242749        0.6424547944        1.6845558283
 H         -1.4741173671        1.9021954554        2.8613448919
 H         -2.8127707016        2.1443317362        1.7464115633
 H          0.0380642023       -1.5406502431       -2.2543813263
 H         -0.3632555323       -2.8153118338       -1.1290334789
 H          0.8362572146       -3.1207993936       -2.3918690013
 H          2.8584054072       -3.4707350556       -1.3330020910
  61
        -75.79861279
 C          4.8013011282       -3.3111052017        0.3711794204
 C          3.6278251264       -2.4012306960        0.2009366101
 C          3.5683666982       -1.1805522448        0.8886915568
 C          2.4977298960       -0.3283669150        0.7705981652
 C          2.4908628810        0.9572160601        1.5358997883
 C          1.3683191976       -0.6868601089       -0.0291351161
 B          0.0256182881        0.0581275562        0.0003181795
 C         -1.3347040845       -0.6866090974        0.0162163848
 C         -2.4193039103       -0.3645798218       -0.8400570175
 C         -2.3786926536        0.8670195956       -1.6907880281
 C         -3.4889684555       -1.2247450395       -0.9554310262
 C         -3.5838126362       -2.3954295958       -0.1962872520
 C         -4.7510158982       -3.3161766983       -0.3625337189
 C         -2.5673040928       -2.6692326535        0.7113456885
 C         -1.4821785573       -1.8276573676        0.8584890603
 C         -0.4378693651       -2.1483087814        1.8785515422
 C         -0.0255818308        1.6362543504       -0.0020166025
 C          0.7616265491        2.3746310941       -0.9027267790
 C          1.5834936408        1.7004850740       -1.9605217640
 C          0.7475167854        3.7612876652       -0.8583446172
 C         -0.0463642399        4.4543325354        0.0422899725
 C         -0.0815917232        5.9530235424        0.0649108381
 C         -0.8345554212        3.7167441473        0.9188992635
 C         -0.8443496913        2.3330699921        0.9031973358
 C         -1.6796870727        1.6042308217        1.9135224108
 C          1.4925139237       -1.8838413725       -0.8132174156
 C          0.4278873890       -2.2429293053       -1.7979724909
 C          2.5757547427       -2.7204822774       -0.6530522618
 H          5.7336035904       -2.7807652471        0.1780486318
 H          4.8426544922       -3.6845415875        1.3956197896
 H          4.7356281350       -4.1616778832       -0.3030925963
 H          4.3949640115       -0.9116836615        1.5323341240
 H          2.5497680296        1.8052457457        0.8571808862
 H          3.3299782794        1.0020915211        2.2263863838
 H          1.5610528797        1.0594883993        2.0901050193
 H         -2.5766132449        1.7540226343       -1.0918728684
 H         -1.3902200138        0.9874154374       -2.1242558284
 H         -3.1198390017        0.8142006466       -2.4855909001
 H         -4.2818962548       -0.9949247730       -1.6541770599
 H         -4.6590435733       -3.8680028462       -1.2998586776
 H         -4.7999588727       -4.0348590705        0.4520639771
 H         -5.6852559023       -2.7580124124       -0.3989260608
 H         -2.6409216865       -3.5495489556        1.3357788887
 H          0.4379001013       -2.5758719670        1.3909485721
 H         -0.1098204660       -1.2453922233        2.3874174467
 H         -0.8107998975       -2.8623157030        2.6098912584
 H          0.9438332190        1.3669260204       -2.7799121256
 H          2.0806082881        0.8233264471       -1.5557042037
 H          2.3272645514        2.3807154747       -2.3693820287
 H          1.3533520868        4.3135055015       -1.5639937733
 H          0.7226050073        6.3697849539       -0.5364843999
 H         -1.0303485642        6.3155917163       -0.3326682400
 H          0.0143191032        6.3235826253        1.0844775796
 H         -1.4444059820        4.2406403314        1.6424784174
 H         -2.4630675397        1.0317133943        1.4240671058
 H         -1.0646934090        0.9025144779        2.4736645626
 H         -2.1404392698        2.3002107954        2.6112138656
 H          0.7891984291       -2.9837655219       -2.5084272230
 H          0.0921801604       -1.3579532571       -2.3323115173
 H         -0.4392024961       -2.6537120253       -1.2817916176
 H          2.6251456017       -3.6361701081       -1.2273068420
