95
 energy: -148.841408404850 gnorm: 0.000042547868 xtb: 6.7.1 (edcfbbe)
C           -2.02658923621327        3.87450643289007        2.24327954262266
C           -2.46371155077760        2.58328996330556        2.57804298393860
C           -3.13418169147469        1.82032098650197        1.66323996868124
C           -3.39671239256121        2.31581840318239        0.36889112242174
C           -4.08436854123843        1.56195013681202       -0.61811373327335
N           -4.46917226125834        0.23266058320237       -0.33483009857291
C           -3.60461013842922       -0.82627129310995       -0.16977079646022
C           -2.15386314589143       -0.72964580166081       -0.21319250336541
C           -1.47315966747348        0.12300196599320       -1.07991659284429
C           -0.09317246790396        0.17831374331514       -1.06306170994601
C            0.64250291268656       -0.61867189039081       -0.19101121055370
C            2.11870236014148       -0.54636459637992       -0.16682022374731
C            2.87736947597070       -1.63042703552669       -0.63408060061492
C            2.26899194613137       -2.79536336269665       -1.17262915213427
C            3.01788422345785       -3.82989179210702       -1.64394135314899
C            4.42538459084742       -3.76049917344217       -1.61915784699816
C            5.04997620179905       -2.65893092636191       -1.12029163903122
C            4.30554986491758       -1.56420355989577       -0.60793341932367
C            4.92924919273687       -0.41608931292133       -0.09930257682361
N            6.33840376743659       -0.35260155784888       -0.06197537545582
C            7.12995657008353        0.44782388581359       -0.85576957383710
C            6.75522602878281        1.33994759368964       -1.85039357159683
C            7.75834281287243        2.01984021836902       -2.51339467390902
C            9.10246309826412        1.81661691174596       -2.20273560131177
C            9.48001990815731        0.92318414174425       -1.21982345706434
C            8.49035209490425        0.22766925408146       -0.53595141390147
C            8.50666049329991       -0.75550694410944        0.51136935036260
C            9.51757928171096       -1.36979939054913        1.24046470466560
C            9.16966085369001       -2.29325045984125        2.20643397371254
C            7.83375099030149       -2.60482136411479        2.45701901438074
C            6.80983598010318       -2.00793517613566        1.74753048295355
C            7.15562953551949       -1.08709274264099        0.76870875472749
C            4.17858655588191        0.67034393287117        0.37146465698602
C            4.79348613123823        1.82983421474166        0.91250466954790
C            4.04686850564213        2.87132619699746        1.37110880269104
C            2.63945535820982        2.81218441696862        1.32386179705037
C            2.01276703317025        1.71138772474384        0.82538231825501
C            2.75083235065915        0.60471318713399        0.32785808001725
C           -0.03783846917635       -1.49142089216871        0.65553605234421
C           -1.41566360680433       -1.54884884551117        0.64262090525309
N           -4.23965837652219       -1.95059687159118        0.05898894677313
C           -5.56406179651242       -1.64292600263382        0.04051788651424
C           -6.66926862211202       -2.52574932810026        0.19802942149770
C           -6.48133335756101       -3.89909686395687        0.39008908127192
C           -7.56112760381603       -4.73813665934905        0.51057403880323
C           -8.84893284639136       -4.21017231403336        0.43699004675339
C           -9.04569131631530       -2.86118038620847        0.25335343843567
C           -7.96792651122683       -1.96953147999667        0.13419736473581
C           -8.14444936543230       -0.53568825112296       -0.02625785487893
C           -9.41663620030885        0.05491654719781       -0.01821090725199
C           -9.59101635247669        1.41468633052617       -0.12625465201803
C           -8.48653158541934        2.25432401188170       -0.23411267714157
C           -7.22354518349893        1.71569411404829       -0.25507212117791
C           -7.02511173961506        0.32983779095649       -0.17202621651377
C           -5.73865354559355       -0.27925932345025       -0.18828029709043
C           -4.34826762918877        2.09479348477799       -1.85737298811026
C           -3.93589119692139        3.39654763345534       -2.17033709472067
C           -3.25452869012380        4.14355745879779       -1.24961113785379
C           -2.97046107715564        3.62863932390869        0.03278360217544
C           -2.27645920858449        4.38575942432836        1.00089207614180
H           -1.49542046338351        4.46032730336835        2.97887889838167
H           -2.26765027346209        2.19443574256146        3.56630522897545
H           -3.47263119960558        0.82913532235066        1.92905586868312
H           -2.01644177347741        0.73307652507185       -1.78460320505559
H            0.42491042935018        0.84001408329050       -1.74208056037348
H            1.19113946704208       -2.84399173935419       -1.20830398059026
H            2.53882368919599       -4.70862707821568       -2.05022226230558
H            5.00442920177707       -4.58512889408886       -2.00794952629990
H            6.12834263852371       -2.60397591205486       -1.11477892822501
H            5.71440633275644        1.49657960052260       -2.09250301277769
H            7.49668745987925        2.72316367075777       -3.29074966072111
H            9.85761913061285        2.36774252138483       -2.74418592564337
H           10.52223552314517        0.76431285366327       -0.98522794114468
H           10.55307482886035       -1.12668228733213        1.05303047161489
H            9.94181539098885       -2.78278853813868        2.78202297740154
H            7.59527986248017       -3.32791235355918        3.22360016943468
H            5.77526807558449       -2.24875704841747        1.94284221918713
H            5.87135100137902        1.87315530441835        0.95973223585739
H            4.52809235096574        3.74697325721625        1.78138821587591
H            2.06194615746817        3.64526919888112        1.69625790231035
H            0.93486284191270        1.66186181066781        0.80432725202258
H            0.52326967319474       -2.11967093131338        1.33205235284354
H           -1.94606758188986       -2.22349697471698        1.29720417094636
H           -5.46805620981195       -4.26899573587779        0.43234439751542
H           -7.41840262424106       -5.79872161559862        0.65754875729031
H           -9.70253180466520       -4.86699024926508        0.52465157538446
H          -10.05996660170223       -2.49883123003953        0.19995863315184
H          -10.29376862441162       -0.56314699984676        0.08489698737760
H          -10.58722633546146        1.83216517807611       -0.11537610509870
H           -8.62011651001989        3.32423457786524       -0.29700016134809
H           -6.36854741227612        2.36924300236289       -0.32234893105909
H           -4.87760792361641        1.50206411998768       -2.59003419088915
H           -4.15619830758966        3.79502681101870       -3.14911897972391
H           -2.92577856516872        5.14365859041501       -1.49061312770352
H           -1.95003358901243        5.38176669774722        0.73889017163321
