95
 energy: -148.774800178871 gnorm: 0.000048846623 xtb: 6.7.1 (edcfbbe)
C           -1.93042423399701        4.25989734208271        1.69412000289616
C           -2.35505428020724        3.01618987336745        2.18696256727314
C           -3.04250933772771        2.15054718372501        1.38264351647595
C           -3.33474378476809        2.49114268920654        0.04556321738653
C           -4.03466666033506        1.62265200866959       -0.83371974934151
N           -4.41200146409627        0.33667058524776       -0.38802291940925
C           -3.54900748089781       -0.70766685346288       -0.11985435887610
C           -2.10722114180354       -0.65240407161145       -0.19905745320076
C           -1.39966687584466        0.19965972192570       -1.05351230906793
C           -0.02480068487246        0.22939070416166       -1.03295879415312
C            0.71400780060256       -0.60927628625290       -0.18532437702171
C            2.16452260093574       -0.55517960393282       -0.15206705568626
C            2.92868153758589       -1.75221646469264       -0.33211274451302
C            2.32777940599669       -2.97617965575139       -0.64290504638672
C            3.07322999094169       -4.14696198054846       -0.75158032621081
C            4.43800296418757       -4.11698991183742       -0.54860706050019
C            5.07269866313709       -2.90493979609445       -0.30021420815689
C            4.35186663459078       -1.70725738130641       -0.23726304966050
C            4.99557054330073       -0.45014533455805       -0.05215377458302
N            6.39177825092916       -0.39771732762496        0.00357032952842
C            7.25832588276268       -0.76145795438832       -1.00905171066357
C            6.96955859020365       -1.20395129620723       -2.29288348206536
C            8.03211479524017       -1.47022394853551       -3.13524444494083
C            9.35068655807836       -1.29352282752647       -2.71960202133166
C            9.64244747820705       -0.83312752769623       -1.44915535249892
C            8.59205042591008       -0.56036618671580       -0.58373158842257
C            8.51832162699683       -0.06147235966558        0.76372850002109
C            9.47142406334991        0.29120043550394        1.70927358583203
C            9.04351154333662        0.72087401387611        2.95161952042739
C            7.68617138008032        0.78922917804245        3.26070091482810
C            6.71866818759619        0.44309948859578        2.33680261196774
C            7.14325092158439        0.03033726338665        1.08110761343402
C            4.24896130388151        0.75618372824088        0.07728804027826
C            4.87441433573603        2.00342706632729        0.18432207061117
C            4.13752006858478        3.16640265474798        0.37922914946335
C            2.76301091480677        3.09688789116833        0.48199483277146
C            2.11472357288065        1.87473869924812        0.32751512240062
C            2.82315187673554        0.69672951491604        0.07004664655941
C           -0.00182583783381       -1.50180284145073        0.62905756386813
C           -1.37481758750534       -1.51671628835740        0.62731452467066
N           -4.19570633142666       -1.78897555920438        0.26071573624935
C           -5.51236760473818       -1.46859388253873        0.23934513411366
C           -6.62085082014355       -2.31127956909982        0.53430501077910
C           -6.43843659552333       -3.65355492160503        0.88505458149438
C           -7.52112257592267       -4.45856390022759        1.13935846935234
C           -8.80566625179230       -3.92707612733509        1.04123858987639
C           -8.99674656057697       -2.60763237205737        0.70095771063865
C           -7.91574953784297       -1.75061891253406        0.44188672401505
C           -8.08363851155336       -0.34495651758850        0.11175906074907
C           -9.34985052447121        0.25666452927946        0.08255631408621
C           -9.51716656452642        1.59460485615999       -0.18870673308337
C           -8.40961266069448        2.40194931190020       -0.42973068789282
C           -7.15199497586521        1.85090303819144       -0.41776125374934
C           -6.96086865215161        0.48308212534961       -0.17033116706942
C           -5.68090281048444       -0.13749161169872       -0.14800013569133
C           -4.32259870849491        2.00446026181563       -2.12260890761812
C           -3.92256094104177        3.26144967038823       -2.59441365241130
C           -3.23028087493836        4.11492517041055       -1.78043786153740
C           -2.92080974874384        3.75600956597370       -0.45134440504167
C           -2.21001430792571        4.62247759224005        0.40651802705311
H           -1.38429718215980        4.92795132383706        2.34370141625298
H           -2.13465759161979        2.74503481072531        3.20885899849037
H           -3.36855654880892        1.19539320806491        1.76888006636938
H           -1.92495189364163        0.82500407271385       -1.75795919465530
H            0.50267458204340        0.87839846312767       -1.71700089392640
H            1.26241691855813       -3.01845509060654       -0.80762360590488
H            2.57410253030140       -5.07527156732771       -0.98705613599669
H            5.02212803314286       -5.02375606778520       -0.60068608650409
H            6.14315931548655       -2.89319332485648       -0.16173821710928
H            5.94904789752692       -1.33929940661411       -2.61786832074572
H            7.83643312778619       -1.82038760312155       -4.13813682009159
H           10.15460900120500       -1.51495463690015       -3.40606023439062
H           10.66449396023626       -0.68295718487738       -1.13519809244143
H           10.52390630954409        0.22506752197589        1.47779186060661
H            9.76972099787186        1.00260520424666        3.69984815873229
H            7.38371402312054        1.11737872403381        4.24431330581901
H            5.66807944911804        0.49476424934396        2.57950657937931
H            5.95001577651099        2.06897854480740        0.12237120930687
H            4.64952213361392        4.11306823602098        0.46810942787910
H            2.18086286011550        3.98578428457197        0.67467234618788
H            1.04010882298696        1.84058518833793        0.41357832963268
H            0.54096203832468       -2.14751740828585        1.30394706583363
H           -1.92006075392833       -2.18372829653574        1.27745915507019
H           -5.42740428899514       -4.02768221784994        0.94097503009923
H           -7.38300689268373       -5.49525617603337        1.40933570156787
H           -9.66176015805542       -4.55760865781607        1.23416384319050
H          -10.00917310821218       -2.24246594007663        0.63406484049066
H          -10.22829806735712       -0.33409958342683        0.28572067954789
H          -10.50943390480957        2.02113684738273       -0.20265089170684
H           -8.53639315120144        3.45723469793100       -0.62142464269871
H           -6.29470255478410        2.48190947401915       -0.58854094181328
H           -4.85984234674549        1.32680045965262       -2.77094811688775
H           -4.16092686471039        3.54027182722402       -3.60967317827732
H           -2.91070409863125        5.08027933457295       -2.14419097688823
H           -1.89219206617605        5.58115301100904        0.02279841165306
