  95
       -148.78414827
 C         -1.1115907476        3.6307639616        1.4945097924
 C         -1.7268748090        2.4937194723        2.0402630943
 C         -2.6470051191        1.7890980919        1.3165183722
 C         -2.9852548503        2.1847339671        0.0056243507
 C         -3.8994771346        1.4597863991       -0.8042464241
 N         -4.4049401436        0.2283522371       -0.3469838128
 C         -3.6302164564       -0.8831257339       -0.0861859291
 C         -2.1764551729       -0.8777081805       -0.1577347210
 C         -1.4849087790       -0.2269885270       -1.1771449779
 C         -0.1070266176       -0.1660319321       -1.1526073972
 C          0.6146457424       -0.7600915350       -0.1209140649
 C          2.0833251822       -0.6318004403       -0.0735432036
 C          2.8958655836       -1.7676305939       -0.2050699122
 C          2.3498793846       -3.0600592047       -0.4226813329
 C          3.1497187662       -4.1578540359       -0.5112485899
 C          4.5475821924       -4.0339060689       -0.3827779392
 C          5.1150749206       -2.8095318776       -0.2075782786
 C          4.3175807018       -1.6377603656       -0.1374783566
 C          4.8839820292       -0.3631667946        0.0054759504
 N          6.2845529267       -0.2289387638        0.0406918728
 C          7.1443179488       -0.4888799153       -1.0031103548
 C          6.8534682570       -0.8926945121       -2.2982925369
 C          7.9120154544       -1.0702725265       -3.1673079190
 C          9.2281888696       -0.8483978419       -2.7648747748
 C          9.5212010712       -0.4368400031       -1.4800465206
 C          8.4745835040       -0.2512939728       -0.5858280229
 C          8.4004169790        0.1662117144        0.7863895996
 C          9.3489977350        0.5238550506        1.7359411934
 C          8.9196674328        0.8731198859        3.0007364546
 C          7.5648616694        0.8649501210        3.3289347577
 C          6.6017647413        0.5123577317        2.4040442988
 C          7.0282711913        0.1693113499        1.1291012128
 C          4.0788439556        0.7798954723        0.1118038247
 C          4.6359293696        2.0808370096        0.2167790831
 C          3.8387678524        3.1759666800        0.3476215454
 C          2.4380967800        3.0322184268        0.3969054127
 C          1.8650187452        1.8034305000        0.2766700196
 C          2.6566593247        0.6378604655        0.0995462562
 C         -0.0760943830       -1.4609385818        0.8645023240
 C         -1.4540423845       -1.5214369603        0.8457458522
 N         -4.3510962810       -1.9164491166        0.2644204087
 C         -5.6453763145       -1.4991584234        0.2272795282
 C         -6.8186800432       -2.2637484094        0.4779936934
 C         -6.7434274394       -3.6214211570        0.8063765186
 C         -7.8884970263       -4.3510131911        1.0061828291
 C         -9.1282491434       -3.7283481544        0.8747075182
 C         -9.2138725060       -2.3924935927        0.5590515972
 C         -8.0666007929       -1.6100190767        0.3572029317
 C         -8.1242329908       -0.1893397993        0.0590129681
 C         -9.3415992490        0.5049534488        0.0145231542
 C         -9.4012881573        1.8583451891       -0.2196372555
 C         -8.2308868670        2.5883087650       -0.4019377792
 C         -7.0180006614        1.9454144475       -0.3750541569
 C         -6.9382999216        0.5605547373       -0.1707119183
 C         -5.7090658111       -0.1558362842       -0.1398289520
 C         -4.2381338588        1.9103644931       -2.0581615028
 C         -3.6753909118        3.0885029164       -2.5635558357
 C         -2.7583639403        3.7860366097       -1.8272972280
 C         -2.3905344054        3.3546591823       -0.5359195277
 C         -1.4436607435        4.0568530721        0.2397179372
 H         -0.3835652797        4.1699318947        2.0823586026
 H         -1.4698744756        2.1806687309        3.0410645213
 H         -3.1269139750        0.9247993735        1.7496168275
 H         -2.0205731894        0.2259073934       -1.9970660075
 H          0.4234788950        0.3463034556       -1.9421715739
 H          1.2797301687       -3.1569542461       -0.5228720358
 H          2.7186437848       -5.1339408870       -0.6775196505
 H          5.1651002469       -4.9183730945       -0.4317646575
 H          6.1863708731       -2.7169867561       -0.1172333001
 H          5.8342572578       -1.0636889194       -2.6110856641
 H          7.7165041571       -1.3860638026       -4.1814885949
 H         10.0280090255       -0.9996387584       -3.4743766255
 H         10.5409776494       -0.2596571939       -1.1728947078
 H         10.3993248463        0.5253589682        1.4861273975
 H          9.6415980438        1.1553577660        3.7525188960
 H          7.2626409567        1.1389866714        4.3289569665
 H          5.5526258029        0.5052483011        2.6593520253
 H          5.7089397352        2.1916890826        0.1891900982
 H          4.2745104642        4.1612024107        0.4227942001
 H          1.8197917033        3.9077641001        0.5269263274
 H          0.7913799550        1.7020381527        0.3192978031
 H          0.4766255995       -1.9379177058        1.6608738139
 H         -1.9934766072       -2.0518725324        1.6150349665
 H         -5.7641895267       -4.0669022150        0.8876120572
 H         -7.8348432178       -5.3998430241        1.2576624040
 H        -10.0328361637       -4.3004199918        1.0222354620
 H        -10.1948835457       -1.9547262684        0.4649063421
 H        -10.2666972051       -0.0238674651        0.1765789985
 H        -10.3581444343        2.3582640121       -0.2478207037
 H         -8.2748574200        3.6558398737       -0.5592666777
 H         -6.1116280709        2.5169015752       -0.4963611511
 H         -4.9389399634        1.3449489266       -2.6554460149
 H         -3.9606078019        3.4256983269       -3.5485469837
 H         -2.3022514800        4.6808852412       -2.2244080096
 H         -0.9880695544        4.9414639697       -0.1816988952
