  50
        -70.70552475
 C          1.6637113994        5.5380644098       -0.1250744998
 C          0.7222036817        4.3723495176       -0.0819711042
 C         -0.6577141016        4.6073167771       -0.0520384591
 C         -1.5691951672        3.5743485854       -0.0291750870
 C         -1.0950047404        2.2683419954       -0.0207010782
 C         -1.7270322258        0.9812830320       -0.0179314476
 C         -3.0494770145        0.5636454484        0.0030864253
 C         -3.2996652174       -0.7924875717        0.0213033449
 Br        -5.1275582731       -1.3592333963        0.0437705030
 C         -2.2866988776       -1.7599666584        0.0345434811
 C         -2.6195818934       -3.2176382747        0.0747319205
 C         -0.9672431327       -1.3374528385        0.0132395985
 C         -0.6882896508        0.0210100213       -0.0280378544
 N          0.5275472524        0.6666499238       -0.0318718232
 C          1.7872918360        0.0476255533       -0.0286140289
 C          2.7472194305        0.4092870928        0.9104573981
 C          3.9848414156       -0.2009653646        0.9050433436
 C          4.3090206415       -1.1925732937       -0.0188324465
 C          5.6857830379       -1.8355956819        0.0255648216
 C          6.7513151151       -0.7498090462       -0.1811957937
 C          5.8745041659       -2.9018653319       -1.0566754935
 C          5.8816806110       -2.5030406606        1.3942849283
 C          3.3368911892       -1.5457551784       -0.9472399289
 C          2.0957097492       -0.9349055794       -0.9600833233
 C          0.2969171031        2.0284549992       -0.0268207437
 C          1.2062439708        3.0753045162       -0.0731377670
 H          1.5396346232        6.1576201349        0.7625755861
 H          2.6971508123        5.2045322647       -0.1740486648
 H          1.4569236109        6.1606348046       -0.9946622748
 H         -1.0080176039        5.6292306971       -0.0563065608
 H         -2.6304207548        3.7716570457       -0.0213817119
 H         -3.8588722464        1.2767408506        0.0086955853
 H         -3.2018157157       -3.4518016957        0.9662999255
 H         -1.7144012448       -3.8193938115        0.0805000258
 H         -3.2210522026       -3.4961507776       -0.7908791509
 H         -0.1700862879       -2.0650550486        0.0401911063
 H          2.5131989475        1.1601849194        1.6504853371
 H          4.7068566733        0.1032171831        1.6475732076
 H          6.6026457732       -0.2541360796       -1.1383509303
 H          7.7440726112       -1.1943591039       -0.1735312808
 H          6.7099519216        0.0019127291        0.6020948093
 H          6.8730482694       -3.3263871109       -0.9754963631
 H          5.1566745947       -3.7105634661       -0.9398566034
 H          5.7725924655       -2.4735675848       -2.0511950855
 H          6.8557817957       -2.9851786083        1.4388674633
 H          5.1153292505       -3.2578618398        1.5579638825
 H          5.8240651243       -1.7786782001        2.2018479998
 H          3.5343423196       -2.3031384326       -1.6879346518
 H          1.3649090033       -1.2114979274       -1.7057445897
 H          2.2685494720        2.8845250109       -0.1136366364
  50
        -70.70549156
 C          1.6264336360        5.5606710725       -0.3669087070
 C          0.6947806160        4.3906752557       -0.2650354182
 C         -0.6869014010        4.6157089573       -0.2388693675
 C         -1.5900731379        3.5779507521       -0.1629838537
 C         -1.1055997778        2.2773286455       -0.0976172309
 C         -1.7267284969        0.9864969847       -0.0329313596
 C         -3.0450169725        0.5579018618        0.0157212707
 C         -3.2820649415       -0.7983803557        0.0964271873
 Br        -5.1044529755       -1.3802822920        0.1568721772
 C         -2.2601846363       -1.7553276647        0.1457536404
 C         -2.5787616983       -3.2128187975        0.2537108253
 C         -0.9450230063       -1.3221580819        0.0961648858
 C         -0.6797158602        0.0356536633       -0.0070310778
 N          0.5301908722        0.6904475617       -0.0473624017
 C          1.7933512591        0.0780933308       -0.0289028075
 C          2.7535373879        0.4673573472        0.8953119929
 C          3.9944871318       -0.1436583152        0.9129359068
 C          4.3144033650       -1.1607488439        0.0213134094
 C          5.6649901910       -1.8585136990        0.0104064616
 C          6.5867048577       -1.3772275479        1.1342047595
 C          6.3544862284       -1.5780374415       -1.3323869913
 C          5.4552437263       -3.3695828757        0.1820284292
 C          3.3408091762       -1.5355636776       -0.9024598319
 C          2.1009133628       -0.9305498826       -0.9352679908
 C          0.2883786198        2.0488103642       -0.1011894754
 C          1.1892946026        3.0992939309       -0.1986735865
 H          1.4051642313        6.1451492284       -1.2588685128
 H          1.5072962240        6.2155354816        0.4957123113
 H          2.6618023388        5.2332091749       -0.4134731925
 H         -1.0455440431        5.6334844408       -0.2890750388
 H         -2.6527366781        3.7673357087       -0.1583036366
 H         -3.8613030658        1.2628099962       -0.0053066948
 H         -3.1549628017       -3.4116918289        1.1574329822
 H         -1.6677459392       -3.8048329826        0.2827393824
 H         -3.1807413572       -3.5360891497       -0.5956828958
 H         -0.1403977564       -2.0402224265        0.1484932890
 H          2.5210532799        1.2420613088        1.6110536253
 H          4.7093766774        0.1866822223        1.6483391940
 H          7.5271231173       -1.9225513254        1.0890903489
 H          6.1402708242       -1.5574436206        2.1095332419
 H          6.8105292931       -0.3177978450        1.0333712980
 H          7.3268213757       -2.0649360959       -1.3631704664
 H          5.7620164288       -1.9459309254       -2.1655465567
 H          6.5000556783       -0.5077303516       -1.4643279153
 H          6.4163123214       -3.8781280024        0.2137605135
 H          4.8786093302       -3.7888667697       -0.6374811332
 H          4.9269802929       -3.5728381446        1.1112771121
 H          3.5486282566       -2.3125616959       -1.6223338237
 H          1.3688882595       -1.2277616139       -1.6717720184
 H          2.2528797475        2.9143592243       -0.2338645470
  50
        -70.70544416
 C          1.6359723165        5.5632373441        0.1344176752
 C          0.6941180606        4.3976875895        0.0921553672
 C         -0.6867985077        4.6208541148        0.0800338705
 C         -1.5897682818        3.5796217074        0.0451629215
 C         -1.1053704519        2.2781131440        0.0380849059
 C         -1.7265722128        0.9866281232       -0.0138280788
 C         -3.0452488717        0.5580462422       -0.0482101522
 C         -3.2840235226       -0.8001589671       -0.0706098138
 Br        -5.1065266246       -1.3820050082       -0.1262198021
 C         -2.2638790594       -1.7596676064       -0.0434135181
 C         -2.5842849973       -3.2207802908       -0.0461451621
 C         -0.9482871294       -1.3261846312       -0.0100540420
 C         -0.6801100453        0.0350396958       -0.0121774372
 N          0.5300770669        0.6891372970        0.0413646116
 C          1.7919880849        0.0750588332        0.0492403159
 C          2.7360700901        0.4097791014        1.0111132099
 C          3.9789695132       -0.1974308569        1.0118748766
 C          4.3163300248       -1.1598789637        0.0674614342
 C          5.6689602482       -1.8529732164        0.0359589870
 C          6.3490884336       -1.5578862963       -1.3085160096
 C          5.4601571665       -3.3659447055        0.1925166536
 C          6.6000886045       -1.3814939023        1.1559780172
 C          3.3557114963       -1.4874294640       -0.8871589227
 C          2.1159178671       -0.8817114757       -0.9065524375
 C          0.2885893847        2.0488843336        0.0733017239
 C          1.1888441841        3.1033974703        0.0846399415
 H          2.6046919768        5.2964663801       -0.2816711851
 H          1.2329397234        6.4073868844       -0.4208715841
 H          1.7871174371        5.8830169412        1.1664265449
 H         -1.0479349258        5.6388262108        0.0893987091
 H         -2.6521031642        3.7688414624        0.0196723607
 H         -3.8607667212        1.2641725816       -0.0539507628
 H         -3.2016408388       -3.4777227509        0.8147501435
 H         -1.6742883030       -3.8141245580       -0.0133508144
 H         -3.1452418924       -3.4870508519       -0.9421316959
 H         -0.1461525915       -2.0477751734        0.0287964514
 H          2.4895061758        1.1389087179        1.7686532609
 H          4.6816126532        0.0918213249        1.7759526599
 H          5.7574823570       -1.9254614221       -2.1422376122
 H          7.3251683126       -2.0365025833       -1.3468066864
 H          6.4852698593       -0.4856722213       -1.4339054905
 H          6.4205754401       -3.8767879208        0.1985643720
 H          4.9494787479       -3.5805604914        1.1290680780
 H          4.8654816063       -3.7716766968       -0.6211756103
 H          7.5490576406       -1.9087976909        1.0832311930
 H          6.1742713307       -1.5917612768        2.1343566088
 H          6.8026521594       -0.3159867526        1.0752500482
 H          3.5740865154       -2.2262634950       -1.6431811735
 H          1.3974416892       -1.1374737392       -1.6713117713
 H          2.2537522317        2.9239666336        0.0751584463
  50
        -70.70540069
 C          1.6698007508        5.5237548848       -0.3765893906
 C          0.7192211925        4.3709987546       -0.2550368606
 C         -0.6594348646        4.6059449230       -0.2280191220
 C         -1.5705599523        3.5736773602       -0.1554495412
 C         -1.0962092338        2.2698192843       -0.0958668291
 C         -1.7272594682        0.9836275746       -0.0321883150
 C         -3.0487810324        0.5660126232        0.0204313273
 C         -3.2969345505       -0.7884399018        0.0988920154
 Br        -5.1239890107       -1.3550801922        0.1660820470
 C         -2.2829490148       -1.7538217952        0.1411716894
 C         -2.6130761127       -3.2090676311        0.2455312103
 C         -0.9643273312       -1.3313894981        0.0878423400
 C         -0.6878163010        0.0244200120       -0.0122747333
 N          0.5274193364        0.6694732574       -0.0536361911
 C          1.7866352918        0.0489274592       -0.0485925994
 C          2.7588910559        0.4352513593        0.8674995256
 C          3.9949701400       -0.1781130506        0.8641692293
 C          4.3054960072       -1.1960312739       -0.0354922635
 C          5.6804384673       -1.8425710922        0.0113730495
 C          5.8881398233       -2.4715965095        1.3966895194
 C          6.7483908353       -0.7681450125       -0.2378425294
 C          5.8530500397       -2.9402010578       -1.0420533947
 C          3.3212056458       -1.5731938291       -0.9411850917
 C          2.0809930332       -0.9603562979       -0.9554096693
 C          0.2963926565        2.0302819084       -0.1036929391
 C          1.2040730236        3.0741552062       -0.1966742558
 H          1.2655595431        6.4120532154        0.1034598732
 H          2.6313557739        5.2855648943        0.0726238745
 H          1.8382452157        5.7580818895       -1.4286217653
 H         -1.0130888595        5.6256569241       -0.2729722448
 H         -2.6316415772        3.7713769722       -0.1469480193
 H         -3.8592635082        1.2778190035        0.0049232965
 H         -3.2224579156       -3.5241105425       -0.6015504991
 H         -3.1857792361       -3.4064412546        1.1517294499
 H         -1.7068646569       -3.8086040133        0.2672855605
 H         -0.1656224029       -2.0562662089        0.1356447650
 H          2.5351978683        1.2078317672        1.5880970310
 H          4.7267792637        0.1443583389        1.5890156833
 H          5.8524845688       -1.7226302990        2.1829000209
 H          6.8560771580       -2.9655476731        1.4413579018
 H          5.1142462707       -3.2105262740        1.5944337519
 H          7.7399205019       -1.2137011948       -0.2086841764
 H          6.6033134790       -0.3128723669       -1.2151479708
 H          6.7063666683        0.0158106060        0.5127344996
 H          6.8523657372       -3.3630996160       -0.9628474044
 H          5.7373774465       -2.5410062628       -2.0470797149
 H          5.1363837037       -3.7443672991       -0.8916269946
 H          3.5077622205       -2.3517078627       -1.6623951202
 H          1.3396182432       -1.2572089795       -1.6825890483
 H          2.2665919238        2.8841674072       -0.2336186089
  50
        -70.70530537
 C          1.6669983233        5.5011579300       -0.6144204003
 C          0.7063171839        4.3591535965       -0.4669117586
 C         -0.6708226740        4.5931989850       -0.4285112753
 C         -1.5786840030        3.5635683767       -0.2896459517
 C         -1.1020792390        2.2629626128       -0.2001826659
 C         -1.7277153989        0.9833908208       -0.0319955663
 C         -3.0467532959        0.5684933769        0.0755598391
 C         -3.2914600696       -0.7821097705        0.2120753371
 Br        -5.1142670040       -1.3438996713        0.3690575224
 C         -2.2773483247       -1.7481523521        0.2303046263
 C         -2.6044250417       -3.2017138878        0.3620818190
 C         -0.9611609082       -1.3281339117        0.1227295296
 C         -0.6864987217        0.0268686920        0.0086965818
 N          0.5244128064        0.6658597597       -0.1317404306
 C          1.7855459304        0.0502951487       -0.1169187743
 C          2.1359086101       -0.8127752096        0.9156570963
 C          3.3796101651       -1.4104354883        0.9258894893
 C          4.3167561520       -1.1686813894       -0.0765720665
 C          5.6778327570       -1.8420959924       -0.0062713192
 C          6.3878532849       -1.3917992291        1.2784097651
 C          6.5737906571       -1.4888536338       -1.1964203880
 C          5.4858395064       -3.3651257420        0.0111691343
 C          3.9511941724       -0.3030327342       -1.1006459075
 C          2.7046976829        0.2962624329       -1.1280915506
 C          0.2893780840        2.0210883397       -0.2595244990
 C          1.1938038325        3.0638042057       -0.3783815067
 H          1.1645197012        6.4546567459       -0.4723883929
 H          2.4755934750        5.4185150061        0.1103550687
 H          2.1109070651        5.4927183895       -1.6106181069
 H         -1.0288605216        5.6097789974       -0.5007223111
 H         -2.6385223841        3.7633423367       -0.2456506104
 H         -3.8581976507        1.2788208276        0.0509034472
 H         -3.1260972507       -3.3912420605        1.3003221354
 H         -1.6998336619       -3.8036874647        0.3375525018
 H         -3.2605511521       -3.5213403659       -0.4470176744
 H         -0.1637286482       -2.0559713151        0.1186778776
 H          1.4349186157       -1.0002729773        1.7156939082
 H          3.6207198601       -2.0727990159        1.7433543671
 H          6.5196808124       -0.3115070836        1.2764869945
 H          7.3679291591       -1.8587677554        1.3471919570
 H          5.8184159323       -1.6632500695        2.1631615300
 H          7.5287517217       -1.9998542555       -1.0939282325
 H          6.1228812772       -1.8055272112       -2.1340529522
 H          6.7695441798       -0.4198200874       -1.2366220945
 H          6.4527793119       -3.8626240722        0.0433134838
 H          4.9613726604       -3.6881924996       -0.8859349316
 H          4.9114896933       -3.6847251337        0.8763247586
 H          4.6344830062       -0.0843739658       -1.9046902789
 H          2.4368252266        0.9511265980       -1.9440532687
 H          2.2578984241        2.8789178450       -0.3910984587
  50
        -70.70473110
 C          1.6500571737        5.5475467160       -0.2467133219
 C          0.7120245263        4.3808513033       -0.1681057138
 C         -0.6682137293        4.6120109666       -0.1333805349
 C         -1.5758324923        3.5764500858       -0.0860014697
 C         -1.0970919337        2.2725666587       -0.0545858811
 C         -1.7252650725        0.9841612577       -0.0210555322
 C         -3.0467759816        0.5645184562        0.0124791711
 C         -3.2942714788       -0.7913238442        0.0600204909
 Br        -5.1208989169       -1.3614909510        0.0949093583
 C         -2.2791164530       -1.7559518073        0.0937349209
 C         -2.6086178033       -3.2134173416        0.1648512464
 C         -0.9606409448       -1.3310382491        0.0608642350
 C         -0.6840375035        0.0266059200       -0.0138686497
 N          0.5303510104        0.6752902201       -0.0389887301
 C          1.7922746587        0.0617439994       -0.0300853649
 C          2.7666616680        0.4670305947        0.8737161487
 C          4.0126653675       -0.1305402507        0.8708755295
 C          4.3285764358       -1.1538554530       -0.0174285558
 C          5.6808232497       -1.8490412268        0.0115974391
 C          5.5420633352       -3.0983015936        0.8938940026
 C          6.7735648751       -0.9437337220        0.5925514745
 C          6.1191245674       -2.2685631026       -1.3979047519
 C          3.3335913663       -1.5629477295       -0.9009662528
 C          2.0894388112       -0.9628439372       -0.9209418651
 C          0.2954230259        2.0366176829       -0.0637057845
 C          1.2003251455        3.0856718607       -0.1385308618
 H          1.4516036220        6.2504013363        0.5611925643
 H          2.6851874208        5.2222070304       -0.1806064538
 H          1.5137484338        6.0783570783       -1.1886434911
 H         -1.0221284329        5.6324974120       -0.1530586512
 H         -2.6376509692        3.7703209109       -0.0747667295
 H         -3.8576572104        1.2759740302        0.0053121576
 H         -1.7022626383       -3.8125922795        0.1945795334
 H         -3.1992009365       -3.5135265827       -0.7010720166
 H         -3.2005845543       -3.4288565817        1.0544749515
 H         -0.1628006813       -2.0568960033        0.1051860966
 H          2.5404427963        1.2440274797        1.5887535336
 H          4.7393602255        0.2136767314        1.5883742352
 H          5.2528382045       -2.8191915381        1.9050650648
 H          6.4874051462       -3.6347500847        0.9388335350
 H          4.7822403620       -3.7666344510        0.4945051428
 H          7.7443038434       -1.4207423501        0.4762915987
 H          6.7976622607        0.0111667303        0.0719699104
 H          6.6232131690       -0.7645436155        1.6537965631
 H          7.1415800827       -2.6387743055       -1.3705796960
 H          6.0785765249       -1.4209308597       -2.0784355082
 H          5.4948288786       -3.0644253865       -1.7939498033
 H          3.5216030768       -2.3617939509       -1.6002045384
 H          1.3468271384       -1.2799308467       -1.6379943595
 H          2.2629774020        2.8987453564       -0.1836581584
