  50
  -70.3530088912000       0.212527480218777      !
 C          1.6199158715        5.5732408046       -0.1258199163
 C          0.6893595052        4.3987451063       -0.0825714291
 C         -0.6930006506        4.6205034014       -0.0660280507
 C         -1.5950003215        3.5792093393       -0.0431553611
 C         -1.1088087863        2.2777484358       -0.0226028862
 C         -1.7281301194        0.9844416103       -0.0171196843
 C         -3.0460792074        0.5522883475       -0.0030086409
 C         -3.2814350938       -0.8064743741        0.0210353054
 Br        -5.1032848124       -1.3930347987        0.0341531506
 C         -2.2583671693       -1.7630909674        0.0462805956
 C         -2.5754023285       -3.2241800089        0.0924760614
 C         -0.9435414527       -1.3263345904        0.0313726416
 C         -0.6796330521        0.0348852022       -0.0147039962
 N          0.5293758995        0.6925709552       -0.0130392682
 C          1.7934153757        0.0818571790       -0.0018361523
 C          2.7404406038        0.4358293570        0.9497434756
 C          3.9822798472       -0.1735472142        0.9598675482
 C          4.3160779544       -1.1542250634        0.0332284612
 C          5.6680991419       -1.8489946402        0.0128944301
 C          6.5738169442       -1.4109958752        1.1669954850
 C          6.3748167810       -1.5147796377       -1.3084747402
 C          5.4591467510       -3.3659663333        0.1220434877
 C          3.3556107798       -1.4937967836       -0.9175200117
 C          2.1150393743       -0.8898173633       -0.9430375188
 C          0.2855533215        2.0516361793       -0.0165449478
 C          1.1855588357        3.1064936044       -0.0605264313
 H          1.4093420113        6.1920882845       -0.9969419544
 H          1.4879967140        6.1934181111        0.7602577230
 H          2.6564724036        5.2494194103       -0.1714067219
 H         -1.0530022385        5.6389286526       -0.0808925561
 H         -2.6580130968        3.7666711797       -0.0452202182
 H         -3.8634378744        1.2562544065       -0.0071603590
 H         -3.1631632662       -3.4593801892        0.9798823305
 H         -1.6636572905       -3.8155134471        0.1103342938
 H         -3.1653816538       -3.5146224588       -0.7769608269
 H         -0.1382320746       -2.0446977509        0.0661236512
 H          2.4968952181        1.1813722988        1.6922746467
 H          4.6866599551        0.1286217852        1.7172000296
 H          7.5158530444       -1.9527089574        1.1130069870
 H          6.1148216570       -1.6301815685        2.1284151571
 H          6.7968185619       -0.3480811736        1.1109715997
 H          7.3484581796       -1.9986301019       -1.3454168016
 H          5.7942209020       -1.8504361042       -2.1633221547
 H          6.5199620330       -0.4398871344       -1.3961964662
 H          6.4207353121       -3.8739272688        0.1465596593
 H          4.8943073338       -3.7534875057       -0.7209784024
 H          4.9189886599       -3.6064796529        1.0354221900
 H          3.5745529448       -2.2415060598       -1.6645999414
 H          1.3934728766       -1.1588656109       -1.7003938271
 H          2.2498897449        2.9246824736       -0.0887582993
  50
  -70.3529555325000       0.200859849279922      !
 C          1.6540210124        5.5411759640        0.1154126727
 C          0.7143834759        4.3732594435        0.0999790630
 C         -0.6662827736        4.6047977531        0.1207006379
 C         -1.5758958266        3.5703673352        0.0906747123
 C         -1.0992190636        2.2657530909        0.0540342991
 C         -1.7286226850        0.9786400573       -0.0023421920
 C         -3.0503824950        0.5585187725       -0.0154659118
 C         -3.2980469904       -0.7976516194       -0.0540266037
 Br        -5.1249270083       -1.3675791210       -0.0783302851
 C         -2.2833911839       -1.7633828466       -0.0653703707
 C         -2.6138297098       -3.2220026338       -0.0870832865
 C         -0.9646262090       -1.3383823232       -0.0523802811
 C         -0.6878971781        0.0210680719       -0.0363839854
 N          0.5265747238        0.6681773350        0.0014651803
 C          1.7874142934        0.0513926544       -0.0028287329
 C          2.7340393402        0.3771978918        0.9625039398
 C          3.9728558522       -0.2305130390        0.9495955747
 C          4.3112937993       -1.1844505112       -0.0082081558
 C          5.6886422312       -1.8266607681        0.0292202841
 C          6.7546302817       -0.7319742453       -0.1203526775
 C          5.8938906812       -2.8491629666       -1.0915620579
 C          5.8676762574       -2.5472394103        1.3730828616
 C          3.3523090767       -1.5022212698       -0.9627151573
 C          2.1101749411       -0.8931993978       -0.9680724853
 C          0.2931435391        2.0283782897        0.0570717216
 C          1.2008863056        3.0776004015        0.0641822956
 H          1.5169016213        6.1250781762        1.0250408919
 H          2.6886927429        5.2113811311        0.0671533823
 H          1.4575529865        6.1972259615       -0.7316627075
 H         -1.0185650485        5.6255601364        0.1520083994
 H         -2.6375281944        3.7656259657        0.0920516440
 H         -3.8612216034        1.2696261784        0.0074110271
 H         -3.2073898543       -3.4919957358        0.7867086331
 H         -1.7075903213       -3.8221617999       -0.0929270671
 H         -3.2031746743       -3.4670821134       -0.9709536592
 H         -0.1664279026       -2.0652869126       -0.0434597075
 H          2.4886830088        1.0979937084        1.7283421371
 H          4.6843192000        0.0452481108        1.7131133196
 H          6.6176962773       -0.1991845447       -1.0591414886
 H          7.7480953837       -1.1749938638       -0.1169389887
 H          6.7013370128       -0.0117717705        0.6913177808
 H          6.8921240381       -3.2750587123       -1.0138311270
 H          5.1762088871       -3.6629109972       -1.0162918528
 H          5.8043431100       -2.3821533678       -2.0697120673
 H          6.8420719758       -3.0293006842        1.4116527097
 H          5.1007451107       -3.3090719993        1.4966463800
 H          5.7978648268       -1.8553559666        2.2077099024
 H          3.5611213454       -2.2295259476       -1.7299637202
 H          1.3899127178       -1.1412815525       -1.7337495423
 H          2.2640200741        2.8901563085        0.0303997838
  50
  -70.3529449336000       0.198619651383568      !
 C          1.6564968336        5.5292792490       -0.3535694698
 C          0.7087765086        4.3737892732       -0.2357038213
 C         -0.6703587668        4.6054492816       -0.2050164195
 C         -1.5789909503        3.5707678817       -0.1356366928
 C         -1.1015583964        2.2677319672       -0.0830995831
 C         -1.7295546257        0.9798129172       -0.0243312048
 C         -3.0500200900        0.5589306276        0.0287665820
 C         -3.2949380385       -0.7964417915        0.1012834398
 Br        -5.1205672383       -1.3675731944        0.1691853175
 C         -2.2786770043       -1.7596894027        0.1371162114
 C         -2.6052900230       -3.2161636881        0.2352072158
 C         -0.9611237161       -1.3339931184        0.0833368849
 C         -0.6878919078        0.0229034617       -0.0108823045
 N          0.5257905786        0.6709244800       -0.0514494843
 C          1.7864252564        0.0532453520       -0.0516772561
 C          2.7595064904        0.4374619825        0.8644246492
 C          3.9969723895       -0.1730492552        0.8558999989
 C          4.3081378573       -1.1859932384       -0.0491387647
 C          5.6846358873       -1.8295987108       -0.0078830747
 C          5.8963570165       -2.4646836008        1.3740561051
 C          6.7496687321       -0.7515660648       -0.2539983316
 C          5.8577822932       -2.9218426763       -1.0668056458
 C          3.3230206082       -1.5611253143       -0.9547758548
 C          2.0813896226       -0.9510674885       -0.9638006697
 C          0.2915689523        2.0314220810       -0.0946431980
 C          1.1966918590        3.0777975864       -0.1843731340
 H          1.2511284790        6.4143726658        0.1314236379
 H          2.6194294681        5.2911713888        0.0927269339
 H          1.8224420446        5.7689577845       -1.4047931315
 H         -1.0264199854        5.6245501695       -0.2444915462
 H         -2.6405028268        3.7659961347       -0.1242308857
 H         -3.8621508387        1.2689455176        0.0181285034
 H         -3.2155325323       -3.5285957770       -0.6122217841
 H         -3.1758486782       -3.4191257281        1.1415237695
 H         -1.6976750099       -3.8137205375        0.2524446093
 H         -0.1606803670       -2.0572576554        0.1262290114
 H          2.5353983309        1.2061160654        1.5890806554
 H          4.7293965225        0.1476687812        1.5809031734
 H          5.8604623195       -1.7195229518        2.1638635578
 H          6.8654997019       -2.9566236487        1.4145918288
 H          5.1245207136       -3.2063084222        1.5697409404
 H          7.7422643527       -1.1949845416       -0.2287874347
 H          6.6017292777       -0.2920154543       -1.2288694519
 H          6.7072588460        0.0287372474        0.5003533512
 H          6.8582056997       -3.3428224198       -0.9914550916
 H          5.7393235667       -2.5181709070       -2.0697169929
 H          5.1432333413       -3.7283485967       -0.9188526855
 H          3.5100047004       -2.3357950419       -1.6800034906
 H          1.3393371012       -1.2461780431       -1.6909978638
 H          2.2595703160        2.8904186785       -0.2241876143
  50
  -70.3528867999000       0.186769439971894      !
 C          1.6318627193        5.5644364758        0.1347369690
 C          0.6908506153        4.3981791986        0.0932405121
 C         -0.6902533280        4.6202844102        0.0831424839
 C         -1.5924666869        3.5783710332        0.0490412823
 C         -1.1070746407        2.2772405241        0.0406832630
 C         -1.7273508600        0.9853002482       -0.0109682618
 C         -3.0457428198        0.5557157567       -0.0437171755
 C         -3.2834998764       -0.8026629536       -0.0664180710
 Br        -5.1056288472       -1.3858909134       -0.1197660228
 C         -2.2625782209       -1.7613957143       -0.0410870560
 C         -2.5818596794       -3.2227540715       -0.0440544624
 C         -0.9472761911       -1.3269120381       -0.0093541661
 C         -0.6801531640        0.0345199097       -0.0112157619
 N          0.5296019432        0.6895273024        0.0409490303
 C          1.7919963390        0.0764203452        0.0467844551
 C          2.7371560848        0.4114224931        1.0075001106
 C          3.9805237170       -0.1948273406        1.0062511327
 C          4.3173137020       -1.1565751826        0.0609211281
 C          5.6704334346       -1.8486094948        0.0272155131
 C          6.3484637203       -1.5523719430       -1.3180658330
 C          5.4630161861       -3.3618144980        0.1833579476
 C          6.6027538540       -1.3769319165        1.1461588920
 C          3.3556220027       -1.4844237142       -0.8925156706
 C          2.1153354079       -0.8796547850       -0.9099035332
 C          0.2871093439        2.0490723653        0.0738556321
 C          1.1865647617        3.1042753136        0.0844340922
 H          2.6002085846        5.2986075469       -0.2828222878
 H          1.2274069827        6.4085325599       -0.4195979812
 H          1.7841956278        5.8838527365        1.1666837131
 H         -1.0521620694        5.6379727322        0.0934838204
 H         -2.6549817300        3.7667818341        0.0251155628
 H         -3.8618126973        1.2612144308       -0.0479950696
 H         -3.1978194771       -3.4805737743        0.8175782427
 H         -1.6713605225       -3.8154103098       -0.0128016075
 H         -3.1438560343       -3.4890411906       -0.9393844495
 H         -0.1445316376       -2.0479006475        0.0280449686
 H          2.4910828727        1.1400089997        1.7657219561
 H          4.6840050018        0.0946122025        1.7694862857
 H          5.7559829907       -1.9200162232       -2.1511355792
 H          7.3248585855       -2.0302161327       -1.3579362974
 H          6.4836429710       -0.4799947763       -1.4431446390
 H          6.4238359872       -3.8719183240        0.1878325768
 H          4.9538061897       -3.5772603145        1.1205181436
 H          4.8675232783       -3.7676273150       -0.6296960023
 H          7.5520275886       -1.9034685079        1.0718473040
 H          6.1784596918       -1.5879832153        2.1250302835
 H          6.8043824212       -0.3112311589        1.0656461547
 H          3.5735159566       -2.2227371153       -1.6491850599
 H          1.3959943059       -1.1356163386       -1.6737826168
 H          2.2515967880        2.9256716801        0.0733887800
  50
  -70.3528046320000       0.171215888645575      !
 C          1.6589663232        5.5242636471       -0.3866216552
 C          0.6997695145        4.3753131406       -0.2933737899
 C         -0.6783399476        4.6046128589       -0.2617197424
 C         -1.5849261228        3.5684024126       -0.1722525511
 C         -1.1058541547        2.2664229226       -0.1267488079
 C         -1.7298898547        0.9799793223       -0.0142597664
 C         -3.0489295141        0.5583138904        0.0625625499
 C         -3.2915144412       -0.7970456137        0.1450241514
 Br        -5.1144486624       -1.3685132915        0.2599673451
 C         -2.2750729380       -1.7607842051        0.1381099887
 C         -2.5996918418       -3.2190347508        0.2110034635
 C         -0.9588971408       -1.3340071855        0.0614297855
 C         -0.6866229643        0.0249639282        0.0019388563
 N          0.5240629922        0.6715631057       -0.1004715254
 C          1.7866037056        0.0587384707       -0.0947146365
 C          2.1276791238       -0.8420707880        0.9083145843
 C          3.3727927115       -1.4368694867        0.9099669690
 C          4.3204756561       -1.1551524986       -0.0719441221
 C          5.6824863688       -1.8276626938       -0.0118125729
 C          6.3768289784       -1.4247978096        1.2969616777
 C          6.5907900877       -1.4275140475       -1.1775059047
 C          5.4944122236       -3.3506895088       -0.0542699950
 C          3.9640995889       -0.2521236465       -1.0665522751
 C          2.7163800318        0.3449551622       -1.0853741246
 C          0.2868279270        2.0301265200       -0.1794624503
 C          1.1897189564        3.0786462688       -0.2484800240
 H          1.1523590566        6.4705496889       -0.2142567709
 H          2.4595961363        5.4160287907        0.3436060976
 H          2.1140484355        5.5546123950       -1.3773361913
 H         -1.0382815362        5.6223860662       -0.2994053765
 H         -2.6457257277        3.7639622783       -0.1327157809
 H         -3.8619562655        1.2672248873        0.0556585113
 H         -3.1313485970       -3.4451867542        1.1354244062
 H         -1.6932640990       -3.8175938693        0.1739202092
 H         -3.2458329590       -3.5092358342       -0.6169998797
 H         -0.1595122036       -2.0593586242        0.0388261673
 H          1.4182620995       -1.0613594370        1.6926877479
 H          3.6064960131       -2.1292072366        1.7044223555
 H          6.5057597014       -0.3449137988        1.3374673023
 H          7.3573253485       -1.8918166978        1.3590868734
 H          5.7982312029       -1.7308932707        2.1642910994
 H          7.5459135919       -1.9398684563       -1.0836498254
 H          6.1512865903       -1.7094253075       -2.1315074594
 H          6.7841024713       -0.3572840982       -1.1749524438
 H          6.4622668094       -3.8468566051       -0.0300594927
 H          4.9809185321       -3.6406928746       -0.9688494526
 H          4.9112519207       -3.7041668032        0.7915985507
 H          4.6557776805       -0.0015846309       -1.8539494162
 H          2.4559190801        1.0296813183       -1.8789145689
 H          2.2543833573        2.8967868089       -0.2561505769
  50
  -70.3511589317000       3.000769050026433E-002 !
 C          1.6297088910        5.5455391314       -0.3871374156
 C          0.6963124664        4.3781549847       -0.2720376401
 C         -0.6841393386        4.6060590521       -0.2260939743
 C         -1.5879000095        3.5691823021       -0.1454330319
 C         -1.1047521660        2.2676752212       -0.0912211082
 C         -1.7284601012        0.9785141344       -0.0221822928
 C         -3.0481693033        0.5559162615        0.0360791841
 C         -3.2908526314       -0.7992673957        0.1161079258
 Br        -5.1151549628       -1.3737720179        0.1849628675
 C         -2.2723629156       -1.7600128282        0.1588912064
 C         -2.5964521151       -3.2165149810        0.2656719395
 C         -0.9556975750       -1.3321396722        0.1012143237
 C         -0.6842328849        0.0243346239       -0.0063801177
 N          0.5277447886        0.6757950348       -0.0599642046
 C          1.7915970501        0.0662115026       -0.0525542570
 C          2.7752426151        0.4939465720        0.8306379968
 C          4.0229884891       -0.0999677866        0.8261466907
 C          4.3316588446       -1.1415421984       -0.0432803107
 C          5.6863186472       -1.8320466342       -0.0150374821
 C          5.5618169985       -3.0621188912        0.8958821554
 C          6.7829624762       -0.9111285254        0.5331008934
 C          6.1093727763       -2.2810141687       -1.4201198401
 C          3.3276662115       -1.5726982327       -0.9058890912
 C          2.0814959207       -0.9767448809       -0.9242840914
 C          0.2882906146        2.0355778146       -0.1116076155
 C          1.1889708879        3.0853369614       -0.2199685182
 H          1.4385461030        6.2653105765        0.4075236479
 H          2.6665545849        5.2246918753       -0.3261562482
 H          1.4807078707        6.0552437883       -1.3387528924
 H         -1.0414473800        5.6248525123       -0.2638600948
 H         -2.6501143769        3.7602063969       -0.1259131157
 H         -3.8612979254        1.2647168396        0.0229509129
 H         -1.6879429034       -3.8122953204        0.2977789771
 H         -3.1962065964       -3.5371697223       -0.5864736995
 H         -3.1772716703       -3.4141568955        1.1667021027
 H         -0.1551283321       -2.0545643144        0.1519540183
 H          2.5549960398        1.2857330056        1.5311687160
 H          4.7569666415        0.2619305214        1.5273462532
 H          5.2835965660       -2.7618070317        1.9040620472
 H          6.5092923322       -3.5947437742        0.9413674346
 H          4.7994556185       -3.7411970642        0.5201572805
 H          7.7537573768       -1.3877781538        0.4158399567
 H          6.7979707597        0.0322317552       -0.0084402916
 H          6.6445045566       -0.7092197021        1.5918823154
 H          7.1332301803       -2.6476059636       -1.3967800375
 H          6.0582002345       -1.4485771097       -2.1184582874
 H          5.4829663946       -3.0871290296       -1.7913171471
 H          3.5099619474       -2.3860929792       -1.5896983627
 H          1.3315225847       -1.3115556034       -1.6254418909
 H          2.2515998996        2.9005171718       -0.2735319188
