  50
        -70.70552475
 C          1.6637113994        5.5380644098       -0.1250744998
 C          0.7222036817        4.3723495176       -0.0819711042
 C         -0.6577141016        4.6073167771       -0.0520384591
 C         -1.5691951672        3.5743485854       -0.0291750870
 C         -1.0950047404        2.2683419954       -0.0207010782
 C         -1.7270322258        0.9812830320       -0.0179314476
 C         -3.0494770145        0.5636454484        0.0030864253
 C         -3.2996652174       -0.7924875717        0.0213033449
 Br        -5.1275582731       -1.3592333963        0.0437705030
 C         -2.2866988776       -1.7599666584        0.0345434811
 C         -2.6195818934       -3.2176382747        0.0747319205
 C         -0.9672431327       -1.3374528385        0.0132395985
 C         -0.6882896508        0.0210100213       -0.0280378544
 N          0.5275472524        0.6666499238       -0.0318718232
 C          1.7872918360        0.0476255533       -0.0286140289
 C          2.7472194305        0.4092870928        0.9104573981
 C          3.9848414156       -0.2009653646        0.9050433436
 C          4.3090206415       -1.1925732937       -0.0188324465
 C          5.6857830379       -1.8355956819        0.0255648216
 C          6.7513151151       -0.7498090462       -0.1811957937
 C          5.8745041659       -2.9018653319       -1.0566754935
 C          5.8816806110       -2.5030406606        1.3942849283
 C          3.3368911892       -1.5457551784       -0.9472399289
 C          2.0957097492       -0.9349055794       -0.9600833233
 C          0.2969171031        2.0284549992       -0.0268207437
 C          1.2062439708        3.0753045162       -0.0731377670
 H          1.5396346232        6.1576201349        0.7625755861
 H          2.6971508123        5.2045322647       -0.1740486648
 H          1.4569236109        6.1606348046       -0.9946622748
 H         -1.0080176039        5.6292306971       -0.0563065608
 H         -2.6304207548        3.7716570457       -0.0213817119
 H         -3.8588722464        1.2767408506        0.0086955853
 H         -3.2018157157       -3.4518016957        0.9662999255
 H         -1.7144012448       -3.8193938115        0.0805000258
 H         -3.2210522026       -3.4961507776       -0.7908791509
 H         -0.1700862879       -2.0650550486        0.0401911063
 H          2.5131989475        1.1601849194        1.6504853371
 H          4.7068566733        0.1032171831        1.6475732076
 H          6.6026457732       -0.2541360796       -1.1383509303
 H          7.7440726112       -1.1943591039       -0.1735312808
 H          6.7099519216        0.0019127291        0.6020948093
 H          6.8730482694       -3.3263871109       -0.9754963631
 H          5.1566745947       -3.7105634661       -0.9398566034
 H          5.7725924655       -2.4735675848       -2.0511950855
 H          6.8557817957       -2.9851786083        1.4388674633
 H          5.1153292505       -3.2578618398        1.5579638825
 H          5.8240651243       -1.7786782001        2.2018479998
 H          3.5343423196       -2.3031384326       -1.6879346518
 H          1.3649090033       -1.2114979274       -1.7057445897
 H          2.2685494720        2.8845250109       -0.1136366364
