61
 energy: -95.508965992282 gnorm: 0.000039389711 xtb: 6.7.1 (edcfbbe)
C            1.38358619317445        0.80425434275589        2.89568413918802
C            0.27425954264646        0.25812205213154        2.27633694767697
C            0.40018712361477       -0.38546798796297        1.04726441234908
C           -0.77203311254707       -0.97062558499517        0.37794886077003
C           -0.69001143431723       -2.21579272480233       -0.24146553694259
C           -1.79686460044486       -2.76159261675416       -0.86504791666088
C           -2.99514892259921       -2.07222598971241       -0.89819176489574
C           -3.08892474935070       -0.82685449607387       -0.28381425097300
N           -4.29758948705510       -0.11547404458674       -0.31312762141593
C           -4.45302384226036        1.20915354487159       -0.68131508716102
C           -3.50687161659062        2.11355514317292       -1.14282901508278
C           -3.93769047297232        3.38452771720148       -1.47123215239868
C           -5.27641839486630        3.75572319751536       -1.35516628868361
C           -6.22689005667865        2.85548369624132       -0.91973406138812
C           -5.81592071327574        1.57169971296837       -0.58388433129635
C           -6.51326780771639        0.40229654666863       -0.13075277122111
N           -7.80034486641673        0.22744252772891        0.12888809522087
C           -8.15720819510169       -0.96896607536102        0.55461730175052
C           -7.27090574662993       -2.02640219890148        0.75948889453063
C           -5.92180291966081       -1.86105331534948        0.49485299349146
C           -5.53492124928345       -0.61770228487474        0.01894560100596
C           -1.98241238888328       -0.28694218676677        0.36004824233014
C            1.65317717158318       -0.46126384697590        0.45005905826979
C            2.76806502264660        0.08752081891535        1.07260770766142
N            4.02361592678708        0.00053749353042        0.45745159636366
C            4.89720785811229        1.04935946720517        0.24664624621935
C            4.74631042395617        2.39766649272458        0.53690720640743
C            5.77695357931742        3.25085007534051        0.19199689914649
C            6.92980197583987        2.78340474939359       -0.43508738097752
C            7.07497485944299        1.44693181169471       -0.74860988590978
C            6.05259413275526        0.56960431994591       -0.41185558624682
C            5.85987994675956       -0.84119028420018       -0.59915121475366
C            6.63769980289400       -1.84575504571354       -1.15963903153070
C            6.15120723153456       -3.13763431710551       -1.15876533212625
C            4.91350487610258       -3.43649976730839       -0.59349976409744
C            4.12179170121428       -2.45431808790545       -0.03005418458526
C            4.59369441241376       -1.14974104680653       -0.05125162707226
C            2.63104099914900        0.72023981257811        2.30505713371510
H            1.27811969707751        1.29155268183036        3.85364253200334
H           -0.69128795736459        0.31030397507321        2.75641756717120
H            0.23884838050738       -2.76531355098617       -0.21723499279774
H           -1.72425379538921       -3.72915907658809       -1.33907647485178
H           -3.85207408834946       -2.48283903557085       -1.41030787797024
H           -2.47030889308056        1.83342148440788       -1.25525209956961
H           -3.21893310869599        4.10632141358536       -1.83052989741525
H           -5.56873294833561        4.76062982462765       -1.62061609740483
H           -7.26859980791389        3.12263730984088       -0.84048831040903
H           -9.21289020514670       -1.09352768962497        0.75507001463674
H           -7.63989406580497       -2.97051060824951        1.12952487392219
H           -5.21140717308626       -2.65808989108523        0.66202437382068
H           -2.06620691692919        0.67619990587816        0.84085397950343
H            1.76133671265738       -0.91935365437212       -0.52188821826246
H            3.84924905984012        2.77295603632209        1.00608573249585
H            5.68484571008744        4.30462464656846        0.41036480182305
H            7.71403709319254        3.48207678322396       -0.68584487305430
H            7.96105683513002        1.08685929378970       -1.24930113948582
H            7.60443170364008       -1.61666910386466       -1.58201065537318
H            6.73900056904556       -3.93315161039399       -1.59201081293879
H            4.56704964863642       -4.45961306639445       -0.59192656023220
H            3.17379827423997       -2.69908628915869        0.42527904583476
H            3.50151007274512        1.12685860073226        2.79689855789747
