61
 energy: -95.408895510047 gnorm: 0.000053301951 xtb: 6.7.1 (edcfbbe)
C            2.53997737076139        3.59469669117626        1.45437569982237
C            1.25519677169665        3.68088734925531        0.95115503788778
C            0.69778586963861        2.60375249334471        0.26354426599310
C           -0.67764907210806        2.62962780533827       -0.24504986094461
C           -1.21897111350585        3.75258447050079       -0.87278905049920
C           -2.50806531881732        3.71520515934416       -1.37146029680259
C           -3.28498457698195        2.57587721950654       -1.25451760531040
C           -2.76316532651758        1.45389363155133       -0.60754826723413
N           -3.51566269969997        0.28425839608707       -0.47583412938641
C           -4.81820568353180        0.19110246651067        0.00517015609280
C           -5.72073845996962        1.18266250056599        0.32043510664533
C           -6.97349941616478        0.79981753398454        0.80563826947910
C           -7.29397466644446       -0.54388796743707        0.97398246860278
C           -6.38786642387325       -1.54910375891844        0.68921142801142
C           -5.11805176594478       -1.18888227463322        0.21992212986586
C           -3.97492358115863       -1.92086964533589       -0.15224076862681
N           -3.67607285125905       -3.23271673609240       -0.11264958737631
C           -2.49329664439536       -3.65431627132167       -0.55466518863371
C           -1.49502623141327       -2.80631676552487       -0.95881999913507
C           -1.75697175256296       -1.40980102872398       -1.04166527581994
C           -2.99508299633879       -0.98050104947929       -0.60623938020657
C           -1.46778582404326        1.49345534245236       -0.10715277137021
C            1.46928952784843        1.46215213208830        0.06488990193251
C            2.75668460444763        1.37268563263297        0.57540854271553
N            3.49499504793436        0.19950814099216        0.37196569310954
C            4.79476550969397        0.12347823020125       -0.08791537394100
C            5.66785453345325        1.13978187386455       -0.45022225999777
C            6.92256910658226        0.78180040361157       -0.90563496314382
C            7.30488011375017       -0.55328201466375       -1.01152920997978
C            6.43041277829193       -1.57018036507536       -0.68094652250131
C            5.16456136697046       -1.23527613914569       -0.22111671307321
C            4.02180996933377       -2.01072883349602        0.17559037785887
C            3.77628247078341       -3.37447807959127        0.25764003538239
C            2.53794594071444       -3.79904680508357        0.69880195931438
C            1.56038748974484       -2.88255945105118        1.07909130476607
C            1.78443947603565       -1.52084116528095        1.01011024598088
C            3.01354171217533       -1.08595294799671        0.53274053172886
C            3.29271066080288        2.44485956287660        1.28579496676876
H            2.95800775250286        4.42689640491616        2.00138976955671
H            0.66824761678547        4.57214312130943        1.11403041782025
H           -0.61702924996562        4.64065865877881       -0.99121923087157
H           -2.91257685160367        4.58097774555950       -1.87476049637799
H           -4.27160652811364        2.53732495584563       -1.68791578180811
H           -5.47594818409426        2.22841672641958        0.21670350206074
H           -7.69621183251465        1.56016247664687        1.05658336312343
H           -8.26902791747129       -0.80505460901894        1.35936807232207
H           -6.63304140097269       -2.58853963878247        0.83741284910996
H           -2.36138137514247       -4.72670843749212       -0.57670270175347
H           -0.54767937887019       -3.19968591482137       -1.28757743466396
H           -1.05642998519496       -0.74966712829480       -1.52741346323355
H           -1.08956195031546        0.63983328234084        0.43460231836047
H            1.07766836159539        0.64502275784684       -0.52170122696668
H            5.37582019121595        2.17728011220229       -0.39356271561940
H            7.62074543999262        1.55526967948195       -1.18964963259405
H            8.29572043699785       -0.79203260534134       -1.36803418652170
H            6.71953682716849       -2.60543258826896       -0.78093682981274
H            4.54126941432656       -4.08479520231299       -0.01740294103154
H            2.32428017392585       -4.85554765346571        0.76281571856208
H            0.60667667356910       -3.24156945570463        1.43654747631069
H            1.02771336198705       -0.82270335589623        1.33360722624085
H            4.28017190888437        2.36730163405434        1.71375701962479
