61
 energy: -95.408907748042 gnorm: 0.000045678709 xtb: 6.7.1 (edcfbbe)
C            2.52421043133252        3.64003911993459        1.45724663501470
C            1.23625226749309        3.72266313696713        0.96173260060838
C            0.67498064424841        2.64177934036347        0.28245952734099
C           -0.70310206676072        2.65926423414537       -0.21742201111790
C           -1.26649636421598        3.78430934146002       -0.82241929263972
C           -2.55791295666004        3.73527703257460       -1.31380278380928
C           -3.31563314218453        2.58091368071036       -1.21663024455438
C           -2.77101420554094        1.45539489338117       -0.59514768396677
N           -3.49689211737103        0.26625229125640       -0.48935413842350
C           -4.79530287940005        0.12899842645233       -0.00859991975515
C           -5.72164838976752        1.08998954642255        0.33152777778407
C           -6.96313327435735        0.66437833355460        0.80978355245094
C           -7.24961937662880       -0.69056460904595        0.94651534521863
C           -6.31938784073726       -1.66576328529838        0.63613907745906
C           -5.06021459974888       -1.26274422166802        0.17358853035657
C           -3.89972657981778       -1.95701095939423       -0.21783077291507
N           -3.56831751732023       -3.26134386098426       -0.20966402107499
C           -2.37571289191423       -3.64214551464097       -0.66207666455649
C           -1.40011804007979       -2.75985973974395       -1.04831063152570
C           -1.69787711519513       -1.36934302015213       -1.09920965696034
C           -2.94531549032657       -0.98170248408583       -0.65112737868892
C           -1.47584998415554        1.50879338996881       -0.09639853929453
C            1.44790947654403        1.50035139125557        0.08559300740884
C            2.73607639815045        1.41219969423264        0.59353705953060
N            3.46693481313975        0.23261247167562        0.39937288959727
C            4.76336868361431        0.14061135204165       -0.06622377167620
C            5.64406665389944        1.14575536484088       -0.44096292361894
C            6.89285569586445        0.77222967004286       -0.90022976422265
C            7.26193230878159       -0.56723679503340       -0.99744121627045
C            6.37985141366764       -1.57323501456685       -0.65376320226080
C            5.11972029404001       -1.22273164046381       -0.19006211988909
C            3.97168147964463       -1.98418296803079        0.21849501306726
C            3.71299648442330       -3.34477607651642        0.31211993943833
C            2.47230570442475       -3.75369339765480        0.76151073286079
C            1.50560028389177       -2.82481264206269        1.13944170423510
C            1.74327457375757       -1.46603243857221        1.05999062150708
C            2.97421044403659       -1.04691513178984        0.57315558461929
C            3.27650894484585        2.48888335432633        1.29359038575064
H            2.94515977776943        4.47614531576527        1.99604254602767
H            0.65016879560560        4.61448383714864        1.12447542981684
H           -0.68000018324692        4.68408692590223       -0.92923359392402
H           -2.97946012143839        4.60405033294433       -1.79762102005437
H           -4.30342425334240        2.53450725667434       -1.64653270457059
H           -5.50312802342134        2.14363348963538        0.25170519938524
H           -7.70407806859276        1.40008848131083        1.08023641837785
H           -8.21695849936561       -0.98517931037345        1.32717238197490
H           -6.53820242085884       -2.71427311968238        0.75967244658929
H           -2.21600617517703       -4.70996187914022       -0.70830350317157
H           -0.44317770473342       -3.12147891256901       -1.38559791739772
H           -1.01576834785512       -0.68030388998715       -1.57090958178879
H           -1.08364626487137        0.65195557446967        0.42994899509645
H            1.05636254055280        0.68019346211207       -0.49665542522067
H            5.36197638490686        2.18632637404908       -0.39069765851537
H            7.59678921039659        1.53666941644853       -1.19426653682360
H            8.24845361127825       -0.81826012486608       -1.35746666402652
H            6.65875502124473       -2.61194110259613       -0.74674691364705
H            4.46966749394893       -4.06478963621644        0.03929797676892
H            2.24818536480043       -4.80745179449127        0.83401876228733
H            0.54974374158170       -3.17187253175925        1.50281203145538
H            0.99566694824576       -0.75776583196498        1.38272371592487
H            4.26577022024122        2.41412466838300        1.71782725477755
