  54
  -81.2312556800000       0.125769245070511      !
 C          5.4221994356       -1.0475867216       -0.1358408527
 C          4.8652600243       -0.2570310076        0.8637149676
 C          3.5736787524        0.2066081520        0.7514364423
 C          2.7993528188       -0.1202668434       -0.3709690500
 N          1.4904668156        0.3348855856       -0.4930519959
 C          0.5545224684       -0.4419007317       -1.1859702865
 C          0.5127654016       -1.8291108618       -1.0235676821
 C         -0.4433577328       -2.5719492974       -1.6823848062
 C         -1.3694222140       -1.9518652295       -2.5133364864
 C         -1.3220336658       -0.5770563043       -2.6880101638
 C         -0.3686567620        0.1778247400       -2.0383258449
 C          1.1213334315        1.5669387746        0.0132784578
 C          2.0061221427        2.6562305918       -0.0508736101
 C          1.6090579472        3.9236987884        0.2762213647
 C          0.2746849013        4.1631949986        0.7035843718
 C         -0.6109819253        3.1224117526        0.7898259064
 C         -0.2314227837        1.8070407514        0.4926425125
 N         -1.1175582648        0.7746374073        0.7142675001
 C         -2.4271983978        0.7323553659        0.2486957595
 C         -3.1209318252        1.6636668729       -0.4961232509
 C         -4.4112652710        1.3408390417       -0.9136043457
 C         -4.9796117345        0.1121643539       -0.5912745325
 C         -4.2801927766       -0.8384507925        0.1302046791
 C         -2.9844830226       -0.5411218788        0.5527274086
 C         -1.9810187868       -1.2797508822        1.2380377401
 C         -1.9319567971       -2.5553312899        1.8020363584
 C         -0.7863223029       -2.9458758770        2.4634169474
 C          0.3096679012       -2.0862167956        2.5943784685
 C          0.2907141661       -0.8190687196        2.0295594783
 C         -0.8364354887       -0.4325769641        1.3274472933
 C          3.3709201642       -0.9108180357       -1.3797146897
 C          4.6645231665       -1.3671922114       -1.2557050202
 H          6.4352681691       -1.4059390961       -0.0436129920
 H          5.4463977481       -0.0080782777        1.7390839161
 H          3.1460300812        0.8143166092        1.5343522843
 H          1.2138839930       -2.3061407136       -0.3561913109
 H         -0.4770552825       -3.6413005060       -1.5401396374
 H         -2.1213538735       -2.5365755216       -3.0191533758
 H         -2.0330792168       -0.0912829672       -3.3391610836
 H         -0.3186296941        1.2467737235       -2.1838381604
 H          3.0082680598        2.4825652902       -0.4142468260
 H          2.2983557383        4.7485228676        0.1946721623
 H         -0.0251666117        5.1614784865        0.9787925786
 H         -1.6104254991        3.2906701688        1.1618068916
 H         -2.6832331590        2.6117460680       -0.7675335818
 H         -4.9723413409        2.0544869158       -1.4968237780
 H         -5.9842612752       -0.1049614836       -0.9242001784
 H         -4.7189110461       -1.7986811529        0.3538332871
 H         -2.7809150578       -3.2172659003        1.7247013868
 H         -0.7335744218       -3.9304201901        2.9051636001
 H          1.1790736616       -2.4100617718        3.1456889755
 H          1.1313094734       -0.1548723773        2.1520700006
 H          2.7907149906       -1.1428959113       -2.2598321349
 H          5.0938391179       -1.9703474633       -2.0416796648
  54
  -81.2312541500000       0.125565784618779      !
 C          3.9276271429        1.0766060622       -3.7371794248
 C          3.8564388147       -0.2077361366       -3.2124923152
 C          3.0720011891       -0.4724025461       -2.1117071828
 C          2.3292926149        0.5538575358       -1.5082565697
 N          1.5306078359        0.2832531668       -0.4015048836
 C          0.9395307197       -0.9794033951       -0.2760933017
 C          0.8946676642       -1.6048923289        0.9767859099
 C          0.2765878778       -2.8297505921        1.1140657219
 C         -0.2935714795       -3.4566512266        0.0165829247
 C         -0.2360882501       -2.8461963165       -1.2312509920
 C          0.3740986838       -1.6193964946       -1.3819785717
 C          1.3637827876        1.2225033184        0.5980938219
 C          2.4307900312        2.0533074110        0.9791860984
 C          2.3556619876        2.8572547778        2.0831147872
 C          1.1728499912        2.8744376133        2.8717224088
 C          0.1073749591        2.0893950290        2.5204877715
 C          0.1361112352        1.2775628490        1.3790472505
 N         -1.0030238514        0.6061015436        0.9906512439
 C         -1.5119845427        0.5252486109       -0.2931187959
 C         -1.1472665210        1.2261751161       -1.4281192970
 C         -1.8529084367        0.9916934596       -2.5994858588
 C         -2.9108225106        0.0766966464       -2.6285228312
 C         -3.3109819256       -0.5957095435       -1.4927332515
 C         -2.6262088045       -0.3655235557       -0.2987730591
 C         -2.7915655399       -0.8231375129        1.0374896461
 C         -3.6665307274       -1.7230939142        1.6458104287
 C         -3.5088270113       -1.9981177532        2.9920939531
 C         -2.4902312689       -1.4109150735        3.7370844088
 C         -1.6090207972       -0.5024410765        3.1531740784
 C         -1.7785067099       -0.1988180900        1.8179139022
 C          2.4155039174        1.8498015588       -2.0361322902
 C          3.2016236635        2.1006450343       -3.1385256792
 H          4.5437146582        1.2794029618       -4.5988819984
 H          4.4260739039       -1.0060357379       -3.6642986436
 H          3.0336112898       -1.4670233190       -1.6942254444
 H          1.3540325094       -1.1208054357        1.8258734828
 H          0.2415682949       -3.3023175033        2.0840762030
 H         -0.7795992978       -4.4126594577        0.1305883268
 H         -0.6800288236       -3.3282410379       -2.0888076992
 H          0.3954837933       -1.1322612837       -2.3446903666
 H          3.3448838075        2.0098131069        0.4055086554
 H          3.1967399330        3.4665807355        2.3719104393
 H          1.1141349929        3.5240447374        3.7300376071
 H         -0.8109461513        2.1387296147        3.0858932156
 H         -0.3477395668        1.9492844240       -1.4095390954
 H         -1.5851448850        1.5265921435       -3.4977475689
 H         -3.4311067111       -0.0904693264       -3.5606041826
 H         -4.1422255034       -1.2837244044       -1.5189800771
 H         -4.4430346872       -2.2017181689        1.0691670235
 H         -4.1805920317       -2.6920859275        3.4761974566
 H         -2.3762219239       -1.6619463088        4.7802930437
 H         -0.8120661017       -0.0681153789        3.7366052868
 H          1.8507733047        2.6490535361       -1.5806506407
 H          3.2491809581        3.1010600554       -3.5420098280
  54
  -81.2312409200000       0.123820122040747      !
 C          5.4334811882       -1.0256267691       -0.1629320087
 C          4.6710770745       -1.3425930636       -1.2802370664
 C          3.3725109043       -0.8968299934       -1.3919264252
 C          2.8014440908       -0.1184228833       -0.3735240444
 N          1.4893362113        0.3315362603       -0.4863346798
 C          0.5539073805       -0.4508377405       -1.1732311067
 C          0.5220214371       -1.8382516886       -1.0086549719
 C         -0.4324944346       -2.5883327377       -1.6615002390
 C         -1.3663353150       -1.9756105512       -2.4891949842
 C         -1.3285010208       -0.6008331935       -2.6665909416
 C         -0.3768792597        0.1612734137       -2.0227139447
 C          1.1211653174        1.5637589462        0.0199125161
 C          2.0080718839        2.6513813797       -0.0441134363
 C          1.6150567090        3.9194735270        0.2857338671
 C          0.2820250561        4.1618148355        0.7149077054
 C         -0.6062938650        3.1230827004        0.7997429140
 C         -0.2304552467        1.8070762517        0.5005790456
 N         -1.1211698979        0.7779454849        0.7194559330
 C         -2.4289725373        0.7395206075        0.2482019788
 C         -3.1179091288        1.6744140861       -0.4964744248
 C         -4.4062985038        1.3542844219       -0.9227199722
 C         -4.9774781225        0.1248567604       -0.6082494029
 C         -4.2828149385       -0.8291082956        0.1136775537
 C         -2.9889207064       -0.5347730697        0.5441578561
 C         -1.9891442351       -1.2777903224        1.2300165588
 C         -1.9424161131       -2.5570931843        1.7858722632
 C         -0.7997863709       -2.9515066808        2.4500278068
 C          0.2956152330       -2.0925834342        2.5918341639
 C          0.2798225547       -0.8223879681        2.0336721784
 C         -0.8441704148       -0.4320563663        1.3287040825
 C          3.5793335157        0.2037471182        0.7475573170
 C          4.8755883851       -0.2496947788        0.8479129943
 H          6.4507707736       -1.3745988731       -0.0810630167
 H          5.1005069537       -1.9347945866       -2.0743810460
 H          2.7885756407       -1.1279108829       -2.2699569106
 H          1.2296022697       -2.3095471282       -0.3440273507
 H         -0.4583235366       -3.6576298786       -1.5172732308
 H         -2.1168145833       -2.5661166444       -2.9904573154
 H         -2.0454076046       -0.1201830737       -3.3150494375
 H         -0.3344924773        1.2302279915       -2.1704650866
 H          3.0095226680        2.4759171080       -0.4081809574
 H          2.3066735599        4.7424159823        0.2053664660
 H         -0.0154945331        5.1602800224        0.9919652828
 H         -1.6053193012        3.2932443485        1.1719686748
 H         -2.6784252140        2.6236576582       -0.7614847691
 H         -4.9633036625        2.0709104720       -1.5063551641
 H         -5.9804496754       -0.0903300593       -0.9474251175
 H         -4.7238543221       -1.7897497574        0.3311681885
 H         -2.7906906982       -3.2187380564        1.6999860046
 H         -0.7485526128       -3.9385472698        2.8860248320
 H          1.1619700675       -2.4196774529        3.1459897666
 H          1.1203696242       -0.1592235212        2.1627330792
 H          3.1509413442        0.8001402651        1.5388014867
 H          5.4596480928       -0.0039617890        1.7222101168
  54
  -81.2311955500000       0.118015926270567      !
 C          5.4767138964       -0.9450536828       -0.1597025019
 C          4.7965755345       -1.2588129746        1.0106259367
 C          3.4976193354       -0.8414048711        1.1993374281
 C          2.8437693671       -0.0948145800        0.2076663192
 N          1.5296262959        0.3275360539        0.3982659025
 C          0.6539510158       -0.4833557719        1.1269069482
 C         -0.2572055673        0.0949670906        2.0206999830
 C         -1.1480851217       -0.7005932070        2.7084406786
 C         -1.1424609308       -2.0770314905        2.5344952130
 C         -0.2256141839       -2.6562738766        1.6647694684
 C          0.6671388178       -1.8725460866        0.9665326421
 C          1.1153653945        1.5555571446       -0.0804435738
 C          1.9990440563        2.6487678024       -0.0728072522
 C          1.5851138644        3.9127207107       -0.3907390830
 C          0.2310677671        4.1467307691       -0.7513640730
 C         -0.6561171734        3.1040588310       -0.7757906449
 C         -0.2621610423        1.7917209443       -0.4825182414
 N         -1.1708313655        0.7660113161       -0.6322321913
 C         -2.4552055506        0.7596020661       -0.0990569120
 C         -3.0847807932        1.7105388800        0.6776410656
 C         -4.3610616985        1.4242281476        1.1600999114
 C         -4.9794702047        0.2118657129        0.8685480609
 C         -4.3425631436       -0.7596132836        0.1177097575
 C         -3.0602018083       -0.5000523072       -0.3668608727
 C         -2.1102925215       -1.2691803059       -1.0933571696
 C         -2.1228011695       -2.5503546131       -1.6463190704
 C         -1.0209930380       -2.9779187475       -2.3574802875
 C          0.0899586462       -2.1497671020       -2.5481449169
 C          0.1322449811       -0.8773172637       -1.9958556396
 C         -0.9496703920       -0.4532474291       -1.2460256082
 C          3.5388126551        0.2251333090       -0.9670687624
 C          4.8360836505       -0.2006001690       -1.1447336095
 H          6.4945513414       -1.2720211202       -0.3020740725
 H          5.2907823049       -1.8271600525        1.7843122071
 H          2.9765677702       -1.0703029163        2.1165650114
 H         -0.2477102795        1.1649676099        2.1671831231
 H         -1.8514209836       -0.2456922922        3.3895889212
 H         -1.8453399867       -2.6939979283        3.0714849245
 H         -0.2168894568       -3.7263703335        1.5240685562
 H          1.3601966333       -2.3188090857        0.2701724039
 H          3.0195301566        2.4796310846        0.2373142749
 H          2.2774088480        4.7382214016       -0.3538164082
 H         -0.0846310471        5.1406297226       -1.0245833155
 H         -1.6742631835        3.2673536640       -1.0953866569
 H         -2.6086500372        2.6468861767        0.9244746209
 H         -4.8717791979        2.1536892956        1.7693607792
 H         -5.9728432623        0.0241371282        1.2497206765
 H         -4.8188432719       -1.7071216605       -0.0819457275
 H         -2.9851389507       -3.1875382382       -1.5227305991
 H         -1.0157158440       -3.9671328363       -2.7919520299
 H          0.9238477913       -2.5024042980       -3.1355241680
 H          0.9858664668       -0.2400595827       -2.1633014971
 H          3.0450549167        0.7976552305       -1.7378905516
 H          5.3561834826        0.0429024254       -2.0590764126
  54
  -81.2311705500000       0.114934765710534      !
 C          5.4572829270       -1.0355506803       -0.3073561106
 C          4.9057937092       -0.3382236540        0.7625081911
 C          3.6062947708        0.1136904893        0.7076438475
 C          2.8193365668       -0.1330070795       -0.4257877357
 N          1.5008004307        0.3151324242       -0.4927234437
 C          0.5593492172       -0.4559174204       -1.1807274145
 C          0.5717830871       -1.8512188286       -1.0810769189
 C         -0.3804768399       -2.5986418478       -1.7387996028
 C         -1.3566425423       -1.9771116745       -2.5089551994
 C         -1.3625115579       -0.5942131119       -2.6236052321
 C         -0.4134295908        0.1656861270       -1.9749163605
 C          1.1495297161        1.5285438045        0.0660263045
 C          2.0552982258        2.6035106699        0.0353291365
 C          1.6977140051        3.8603523761        0.4380151190
 C          0.3826886343        4.1051412089        0.9158469963
 C         -0.5239825382        3.0802588008        0.9660226123
 C         -0.1865398864        1.7748729557        0.5845237753
 N         -1.1078293938        0.7640109678        0.7560216693
 C         -0.8705351640       -0.4902060331        1.2877006580
 C          0.2524549760       -0.9735411027        1.9342551182
 C          0.2217673561       -2.2728758118        2.4205219188
 C         -0.9179815132       -3.0693069886        2.2675654055
 C         -2.0582562620       -2.5838650267        1.6622306697
 C         -2.0571310179       -1.2751291367        1.1781169843
 C         -3.0398689425       -0.4501545846        0.5657208049
 C         -4.3598357518       -0.6597997404        0.1650314515
 C         -5.0296064478        0.3634397732       -0.4812313895
 C         -4.4083073191        1.5792824937       -0.7512070035
 C         -3.0933539026        1.8152198971       -0.3518524074
 C         -2.4283022749        0.8110854591        0.3213264312
 C          3.3830059900       -0.8326457244       -1.5031610937
 C          4.6853324020       -1.2761420154       -1.4374275850
 H          6.4772394983       -1.3830138433       -0.2610012455
 H          5.4978753891       -0.1518305540        1.6459978676
 H          3.1825257438        0.6515658622        1.5424061747
 H          1.3133720859       -2.3312161303       -0.4614536743
 H         -0.3710437332       -3.6738209201       -1.6444496703
 H         -2.1045662863       -2.5661438938       -3.0156659490
 H         -2.1117716693       -0.1063112388       -3.2286462540
 H         -0.4050989287        1.2408026159       -2.0768697133
 H          3.0443550248        2.4274633957       -0.3608782368
 H          2.4040593850        4.6726697588        0.3803786596
 H          0.1127381253        5.0921105496        1.2553117355
 H         -1.5095342976        3.2496320572        1.3728117757
 H          1.1294812243       -0.3615925077        2.0731136941
 H          1.0874427814       -2.6717548178        2.9267746217
 H         -0.9030645708       -4.0806581445        2.6472818790
 H         -2.9410569213       -3.1975826637        1.5680770255
 H         -4.8396632331       -1.6091466412        0.3464129103
 H         -6.0520044714        0.2146050860       -0.7973828063
 H         -4.9471459485        2.3514468759       -1.2782549710
 H         -2.6171130913        2.7556057701       -0.5827191586
 H          2.7894686483       -1.0044394565       -2.3883120474
 H          5.1101961658       -1.8064173768       -2.2765533243
  54
  -81.2311660300000       0.114386340664845      !
 C          5.3317715297       -1.2055760353       -0.0519641668
 C          4.8079982005       -0.3502324119        0.9110263182
 C          3.5421855656        0.1728538128        0.7691972469
 C          2.7589571655       -0.1572487998       -0.3463062955
 N          1.4762749725        0.3510572009       -0.4947222907
 C          0.5206460684       -0.3669732384       -1.2280450846
 C          0.3724806724       -1.7456419459       -1.0684979827
 C         -0.6122846190       -2.4169548465       -1.7630339478
 C         -1.4608355921       -1.7307241289       -2.6244999665
 C         -1.3092621834       -0.3637238087       -2.7929231738
 C         -0.3271271304        0.3201770118       -2.1063992228
 C          1.1240794961        1.5844574534        0.0228190555
 C          2.0118785378        2.6702417078       -0.0277302837
 C          1.6022334423        3.9408280422        0.2725533257
 C          0.2518695350        4.1846349163        0.6500550295
 C         -0.6354836212        3.1449792321        0.7316431503
 C         -0.2410572227        1.8258401379        0.4740694711
 N         -1.1049391732        0.7805911913        0.7196522179
 C         -2.4065733945        0.6769351853        0.2431008121
 C         -3.1324473358        1.5680813157       -0.5202236598
 C         -4.4027002438        1.1852591608       -0.9457441408
 C         -4.9214179455       -0.0631485638       -0.6139009056
 C         -4.1897082156       -0.9731453592        0.1270003886
 C         -2.9135701950       -0.6148448383        0.5600414347
 C         -1.8883467712       -1.3010861691        1.2678992201
 C         -1.7900135062       -2.5650221146        1.8515113233
 C         -0.6371843675       -2.8944638262        2.5333523809
 C          0.4166767564       -1.9840621179        2.6679723417
 C          0.3479734053       -0.7270754334        2.0851338181
 C         -0.7837161320       -0.4037693587        1.3593577661
 C          3.2999314577       -1.0108214560       -1.3201137167
 C          4.5677778887       -1.5272597766       -1.1661125780
 H          6.3246000085       -1.6108400423        0.0637623334
 H          5.3942527018       -0.0967812430        1.7815950448
 H          3.1423487039        0.8295840127        1.5263638582
 H          1.0128383497       -2.2724399270       -0.3776647054
 H         -0.7289405798       -3.4808844763       -1.6243830139
 H         -2.2349679157       -2.2595280180       -3.1578205523
 H         -1.9608359841        0.1731659873       -3.4657786336
 H         -0.1964102008        1.3833862642       -2.2430738175
 H          3.0234730726        2.4935460365       -0.3630596813
 H          2.2915142864        4.7667227418        0.2030452245
 H         -0.0580608188        5.1881532243        0.8934307338
 H         -1.6451012945        3.3189932722        1.0720360282
 H         -2.7324714811        2.5302448507       -0.7999632874
 H         -4.9879124866        1.8661635023       -1.5442917881
 H         -5.9111814488       -0.3284938256       -0.9566617509
 H         -4.5887752153       -1.9490014510        0.3577143620
 H         -2.6066067032       -3.2663425446        1.7721891930
 H         -0.5459211572       -3.8693321473        2.9901512453
 H          1.2911288265       -2.2595452728        3.2372823444
 H          1.1518643305       -0.0204375711        2.2143932365
 H          2.7185527699       -1.2468443554       -2.1981613933
 H          4.9712989371       -2.1800240018       -1.9257572585
  54
  -81.2310749700000       0.103878552231551      !
 C          5.4698716846       -1.0304948466       -0.4064036096
 C          4.9251618698       -0.3792428965        0.6955197773
 C          3.6226682098        0.0670171898        0.6707501948
 C          2.8268129107       -0.1385201809       -0.4646087231
 N          1.5039956360        0.3056503580       -0.5001428859
 C          0.5561057937       -0.4588567459       -1.1838823290
 C          0.5990349324       -1.8575715430       -1.1325555645
 C         -0.3580236050       -2.6021031666       -1.7856018980
 C         -1.3706356031       -1.9762884774       -2.5033012231
 C         -1.4061470421       -0.5899741616       -2.5725396886
 C         -0.4514249442        0.1673516145       -1.9305659174
 C          1.1651488591        1.5058696951        0.0936377097
 C          2.0811565280        2.5734929820        0.0751639464
 C          1.7497866598        3.8200340490        0.5278976967
 C          0.4519820322        4.0623750485        1.0502632359
 C         -0.4651922573        3.0461987362        1.0859118263
 C         -0.1561343687        1.7517384089        0.6472566004
 N         -1.0978573442        0.7552760970        0.7914137627
 C         -0.8841583088       -0.5273241411        1.2610487661
 C          0.2355044787       -1.0678053885        1.8669406943
 C          0.1793093499       -2.3877173578        2.2917563888
 C         -0.9816352384       -3.1484934128        2.1186721763
 C         -2.1182069841       -2.6072774543        1.5551409755
 C         -2.0917416665       -1.2771395946        1.1344144475
 C         -3.0627904322       -0.4009026945        0.5774045256
 C         -4.3949302703       -0.5588347886        0.1928496761
 C         -5.0495896725        0.5096529008       -0.3928452113
 C         -4.4016667863        1.7202807401       -0.6195766265
 C         -3.0738421302        1.9044560689       -0.2353542187
 C         -2.4234945097        0.8547615541        0.3804578250
 C          3.3833497631       -0.7913851471       -1.5741026002
 C          4.6886107276       -1.2301248634       -1.5382526315
 H          6.4918591956       -1.3743879957       -0.3832249805
 H          5.5243974662       -0.2257029451        1.5805019731
 H          3.2028978122        0.5682081068        1.5300691163
 H          1.3687888960       -2.3428557641       -0.5527985413
 H         -0.3237950241       -3.6794493269       -1.7284714008
 H         -2.1235245588       -2.5634362394       -3.0046962659
 H         -2.1833778513       -0.0979586920       -3.1378118317
 H         -0.4656087949        1.2450145121       -2.0012115152
 H          3.0586150132        2.3995672343       -0.3497134858
 H          2.4647252035        4.6254471785        0.4789425102
 H          0.2029905114        5.0387173868        1.4334918987
 H         -1.4383858748        3.2121924554        1.5226867491
 H          1.1304215484       -0.4853215319        2.0188475912
 H          1.0421638781       -2.8313391737        2.7643957167
 H         -0.9858510751       -4.1773257559        2.4482517281
 H         -3.0170634390       -3.1945034767        1.4451219280
 H         -4.8961887868       -1.5028526420        0.3411606689
 H         -6.0816298283        0.4019272790       -0.6939145599
 H         -4.9293779393        2.5291793980       -1.1006580938
 H         -2.5779665840        2.8421705026       -0.4332176087
 H          2.7818511194       -0.9309676316       -2.4596580790
 H          5.1081932816       -1.7252150374       -2.4012572616
  54
  -81.2310391400000       0.100013715201018      !
 C          5.5236271235       -0.8324194280       -0.2020689919
 C          4.8591385589       -1.1768378320        0.9689016747
 C          3.5473272412       -0.8052235649        1.1646061017
 C          2.8661644929       -0.0742227232        0.1804836913
 N          1.5383058537        0.3075060215        0.3803654078
 C          0.6852354577       -0.5615183155        1.0641607263
 C         -0.2649397680       -0.0583141117        1.9632718806
 C         -1.1288868011       -0.9171259007        2.6060768505
 C         -1.0567405718       -2.2861825465        2.3854511919
 C         -0.0982480442       -2.7917900989        1.5150862963
 C          0.7681386480       -1.9445634996        0.8606114007
 C          1.1079396117        1.5468139162       -0.0521309053
 C          1.9903082582        2.6418635699       -0.0098631462
 C          1.5832666919        3.9125394983       -0.3071971451
 C          0.2367992851        4.1547209289       -0.6859896581
 C         -0.6507392914        3.1131542043       -0.7360806060
 C         -0.2658592708        1.7955372844       -0.4544735229
 N         -1.1921526066        0.7850870480       -0.6030620646
 C         -2.4716628874        0.8014883557       -0.0568877887
 C         -3.0793931007        1.7654324512        0.7212072055
 C         -4.3571584395        1.5023094387        1.2141944219
 C         -4.9973647713        0.2992264754        0.9325776189
 C         -4.3818498636       -0.6860035018        0.1815270896
 C         -3.0990020851       -0.4491521255       -0.3142843362
 C         -2.1692361404       -1.2352935248       -1.0481143347
 C         -2.2075297181       -2.5185556097       -1.5947333330
 C         -1.1210076377       -2.9654498034       -2.3173898640
 C         -0.0003153766       -2.1548064097       -2.5253944049
 C          0.0686773389       -0.8812721803       -1.9780356510
 C         -0.9973431113       -0.4382643266       -1.2163431349
 C          3.5437033478        0.2748835613       -0.9958174704
 C          4.8540306147       -0.1055564872       -1.1810246864
 H          6.5516124067       -1.1232760023       -0.3498628759
 H          5.3756267560       -1.7327062189        1.7371015120
 H          3.0364293683       -1.0575141695        2.0815580223
 H         -0.3063905402        1.0047449314        2.1496390488
 H         -1.8624624663       -0.5192041405        3.2910608632
 H         -1.7389930358       -2.9528317981        2.8885497111
 H         -0.0354525343       -3.8550899825        1.3403951536
 H          1.4945942743       -2.3347345034        0.1648397104
 H          3.0074263314        2.4653196338        0.3070863150
 H          2.2764238504        4.7357280578       -0.2430170472
 H         -0.0740471693        5.1526104505       -0.9500037063
 H         -1.6649760881        3.2828140238       -1.0648361409
 H         -2.5864990361        2.6948188536        0.9614893832
 H         -4.8511407000        2.2431542834        1.8235719084
 H         -5.9909861522        0.1296675869        1.3215438789
 H         -4.8748962371       -1.6264793764       -0.0104071971
 H         -3.0772459601       -3.1426076301       -1.4567672694
 H         -1.1350651638       -3.9570960729       -2.7458837810
 H          0.8209068216       -2.5228018071       -3.1210756621
 H          0.9315426008       -0.2588433388       -2.1554767812
 H          3.0265398704        0.8358499256       -1.7598766580
 H          5.3620219298        0.1602595503       -2.0959762911
  54
  -81.2302151600000       4.182005223802321E-002 !
 C          5.1196586834       -1.4929121182        0.0615286847
 C          4.6673398062       -0.5536161767        0.9791528249
 C          3.4597770807        0.0832997298        0.7950749608
 C          2.6620839211       -0.2176652160       -0.3183886225
 N          1.4273488869        0.3818407435       -0.4971479469
 C          0.4447876082       -0.2418161314       -1.2831748643
 C          0.1534763062       -1.6010458611       -1.1506709187
 C         -0.8660032903       -2.1602156196       -1.8920271216
 C         -1.6076585687       -1.3829731277       -2.7748259829
 C         -1.3149313653       -0.0353169154       -2.9148124614
 C         -0.3014146086        0.5390518331       -2.1771765306
 C          1.1162515861        1.6157249160        0.0478315732
 C          2.0184206624        2.6912335684        0.0129030782
 C          1.6016719102        3.9670571613        0.2752082765
 C          0.2350164543        4.2286913038        0.5878318183
 C         -0.6631326214        3.1960890189        0.6725252043
 C         -0.2600033567        1.8738008054        0.4716991362
 N         -1.0921498671        0.8114262100        0.7583641106
 C         -2.3587297319        0.5881045766        0.2367502012
 C         -3.1374825808        1.4094230541       -0.5536260841
 C         -4.3416453855        0.9057886746       -1.0344544084
 C         -4.7480937087       -0.3911227786       -0.7298570265
 C         -3.9686284370       -1.2247291242        0.0500003794
 C         -2.7581396526       -0.7437581359        0.5437992181
 C         -1.7076565120       -1.3279831517        1.3077135795
 C         -1.5160229569       -2.5705578938        1.9120054058
 C         -0.3665859060       -2.7828310451        2.6461025604
 C          0.5877025648       -1.7754544985        2.8149482119
 C          0.4234992968       -0.5357137315        2.2150658012
 C         -0.6989216077       -0.3317982428        1.4350884672
 C          3.1404446928       -1.1459741220       -1.2555212970
 C          4.3491002743       -1.7765571192       -1.0586290632
 H          6.0637294479       -1.9919205897        0.2137872189
 H          5.2622642085       -0.3222035336        1.8501459062
 H          3.1162734415        0.8037888380        1.5197807621
 H          0.7136392425       -2.1985899865       -0.4473680613
 H         -1.0960427356       -3.2080408618       -1.7737409475
 H         -2.4094501405       -1.8253071885       -3.3445074425
 H         -1.8824924617        0.5717076298       -3.6040577675
 H         -0.0606876128        1.5859359448       -2.2885721134
 H          3.0393986191        2.5021827732       -0.2859540733
 H          2.2966600494        4.7895539969        0.2207472420
 H         -0.0768240827        5.2417047774        0.7843841901
 H         -1.6832308610        3.3863731601        0.9714120433
 H         -2.8211027686        2.4079252976       -0.8119868582
 H         -4.9654101931        1.5281002255       -1.6573750512
 H         -5.6885372321       -0.7523358639       -1.1200555193
 H         -4.2806719201       -2.2353534949        0.2652687643
 H         -2.2582867601       -3.3475055791        1.8094463823
 H         -0.2050920283       -3.7394412880        3.1216648178
 H          1.4572561662       -1.9598396332        3.4269176168
 H          1.1402572571        0.2538421363        2.3743609908
 H          2.5566341329       -1.3551404038       -2.1387011989
 H          4.7001677573       -2.4923242970       -1.7868673706
  54
  -81.2299561800000       3.179549595342541E-002 !
 C          5.1120370542       -1.5255033730        0.0451839491
 C          4.6673488923       -0.5936014928        0.9737868211
 C          3.4637952733        0.0537713241        0.7989731122
 C          2.6626981056       -0.2289874537       -0.3167767503
 N          1.4327381835        0.3804645902       -0.4894651144
 C          0.4514288668       -0.2221542633       -1.2954135013
 C          0.1319139480       -1.5754435685       -1.1745248713
 C         -0.8893185597       -2.1092337379       -1.9323870897
 C         -1.6029599634       -1.3114675293       -2.8202941008
 C         -1.2813179025        0.0304000739       -2.9488465693
 C         -0.2660529033        0.5797747032       -2.1942308828
 C          1.1212784321        1.6096769303        0.0644103249
 C          2.0237993489        2.6853483523        0.0520654466
 C          1.5976955016        3.9612439734        0.2983633922
 C          0.2210875340        4.2232428741        0.5682606563
 C         -0.6781118722        3.1907289046        0.6359736844
 C         -0.2665005133        1.8675448124        0.4578592842
 N         -1.0940543461        0.8031695275        0.7467861556
 C         -2.3574980260        0.5652831742        0.2252490946
 C         -3.1386420811        1.3685595361       -0.5820150267
 C         -4.3412968632        0.8530638553       -1.0514810042
 C         -4.7462189975       -0.4383595419       -0.7198272118
 C         -3.9644781552       -1.2544559105        0.0753205551
 C         -2.7540551810       -0.7616991486        0.5568883866
 C         -1.7036139713       -1.3280488690        1.3348231050
 C         -1.5118219192       -2.5570542746        1.9655274628
 C         -0.3655877933       -2.7508968130        2.7100623118
 C          0.5850611422       -1.7379474643        2.8613457004
 C          0.4201694926       -0.5114124708        2.2352540570
 C         -0.6990398563       -0.3267581696        1.4460329021
 C          3.1329082419       -1.1511969057       -1.2641597279
 C          4.3374068627       -1.7922685740       -1.0763117575
 H          6.0533822180       -2.0319491771        0.1897806682
 H          5.2655369838       -0.3757207321        1.8460883872
 H          3.1262154012        0.7675345201        1.5328767462
 H          0.6726160949       -2.1884113720       -0.4691704033
 H         -1.1417633386       -3.1530857947       -1.8252549070
 H         -2.4055208890       -1.7341998090       -3.4036973493
 H         -1.8262257315        0.6527566315       -3.6428133445
 H         -0.0005619745        1.6214949278       -2.2971395303
 H          3.0528330479        2.4977782565       -0.2187763744
 H          2.2928857594        4.7845379024        0.2620975702
 H         -0.0971928784        5.2375427568        0.7471888213
 H         -1.7062421621        3.3818819134        0.9052006648
 H         -2.8245262307        2.3622490163       -0.8608204963
 H         -4.9666783825        1.4610033081       -1.6869060387
 H         -5.6869106628       -0.8084540511       -1.1009797985
 H         -4.2747286424       -2.2608431504        0.3122974714
 H         -2.2513134690       -3.3381884116        1.8752298524
 H         -0.2029443881       -3.6976281619        3.2044867683
 H          1.4531348067       -1.9076113439        3.4796839792
 H          1.1334032308        0.2837986335        2.3819576215
 H          2.5464239528       -1.3467803852       -2.1486590656
 H          4.6828262007       -2.5013388947       -1.8137836016
