  54
        -81.23125568
 C          5.4221994356       -1.0475867216       -0.1358408527
 C          4.8652600243       -0.2570310076        0.8637149676
 C          3.5736787524        0.2066081520        0.7514364423
 C          2.7993528188       -0.1202668434       -0.3709690500
 N          1.4904668156        0.3348855856       -0.4930519959
 C          0.5545224684       -0.4419007317       -1.1859702865
 C          0.5127654016       -1.8291108618       -1.0235676821
 C         -0.4433577328       -2.5719492974       -1.6823848062
 C         -1.3694222140       -1.9518652295       -2.5133364864
 C         -1.3220336658       -0.5770563043       -2.6880101638
 C         -0.3686567620        0.1778247400       -2.0383258449
 C          1.1213334315        1.5669387746        0.0132784578
 C          2.0061221427        2.6562305918       -0.0508736101
 C          1.6090579472        3.9236987884        0.2762213647
 C          0.2746849013        4.1631949986        0.7035843718
 C         -0.6109819253        3.1224117526        0.7898259064
 C         -0.2314227837        1.8070407514        0.4926425125
 N         -1.1175582648        0.7746374073        0.7142675001
 C         -2.4271983978        0.7323553659        0.2486957595
 C         -3.1209318252        1.6636668729       -0.4961232509
 C         -4.4112652710        1.3408390417       -0.9136043457
 C         -4.9796117345        0.1121643539       -0.5912745325
 C         -4.2801927766       -0.8384507925        0.1302046791
 C         -2.9844830226       -0.5411218788        0.5527274086
 C         -1.9810187868       -1.2797508822        1.2380377401
 C         -1.9319567971       -2.5553312899        1.8020363584
 C         -0.7863223029       -2.9458758770        2.4634169474
 C          0.3096679012       -2.0862167956        2.5943784685
 C          0.2907141661       -0.8190687196        2.0295594783
 C         -0.8364354887       -0.4325769641        1.3274472933
 C          3.3709201642       -0.9108180357       -1.3797146897
 C          4.6645231665       -1.3671922114       -1.2557050202
 H          6.4352681691       -1.4059390961       -0.0436129920
 H          5.4463977481       -0.0080782777        1.7390839161
 H          3.1460300812        0.8143166092        1.5343522843
 H          1.2138839930       -2.3061407136       -0.3561913109
 H         -0.4770552825       -3.6413005060       -1.5401396374
 H         -2.1213538735       -2.5365755216       -3.0191533758
 H         -2.0330792168       -0.0912829672       -3.3391610836
 H         -0.3186296941        1.2467737235       -2.1838381604
 H          3.0082680598        2.4825652902       -0.4142468260
 H          2.2983557383        4.7485228676        0.1946721623
 H         -0.0251666117        5.1614784865        0.9787925786
 H         -1.6104254991        3.2906701688        1.1618068916
 H         -2.6832331590        2.6117460680       -0.7675335818
 H         -4.9723413409        2.0544869158       -1.4968237780
 H         -5.9842612752       -0.1049614836       -0.9242001784
 H         -4.7189110461       -1.7986811529        0.3538332871
 H         -2.7809150578       -3.2172659003        1.7247013868
 H         -0.7335744218       -3.9304201901        2.9051636001
 H          1.1790736616       -2.4100617718        3.1456889755
 H          1.1313094734       -0.1548723773        2.1520700006
 H          2.7907149906       -1.1428959113       -2.2598321349
 H          5.0938391179       -1.9703474633       -2.0416796648
