  106
       -171.36404911
 C         -8.1932074875       -1.4972948039        1.3039383114
 C         -8.2669599680       -0.1940436504        0.8368154964
 C         -7.1155572525        0.5532935178        0.6828857033
 C         -5.8788128732       -0.0068709271        0.9916716370
 C         -4.6510602512        0.7495074544        0.7601576834
 N         -4.7254512044        2.0635466127        0.5819928571
 C         -3.5710222609        2.6841259193        0.3519571128
 C         -3.5676854034        4.1437422318        0.2728159375
 C         -4.7376543202        4.8627669628        0.5088230106
 C         -4.7244675345        6.2425507231        0.4439912042
 C         -3.5488658934        6.9138808163        0.1449944705
 C         -2.3827325618        6.2022390780       -0.0910797714
 C         -2.3880557179        4.8227249029       -0.0286687979
 N         -2.4151271210        2.0522446807        0.1645907622
 C         -2.4470874285        0.7335751792        0.3117377401
 C         -1.2117517300       -0.0049059034        0.0353746140
 C          0.0005628856        0.6450681123        0.2127113523
 C          1.2134401437       -0.0060036379        0.0412140481
 C          2.4490064193        0.7373461773        0.3022292601
 N          2.4115793385        2.0533438626        0.1328926791
 C          3.5676667397        2.6916504407        0.2945112265
 C          3.5604002433        4.1490716574        0.1822065178
 C          4.7330860695        4.8749394061        0.3810935806
 C          4.7169827570        6.2526362778        0.2812746796
 C          3.5357260266        6.9149726367       -0.0154492520
 C          2.3667155137        6.1964736996       -0.2139894966
 C          2.3749839561        4.8189968404       -0.1167386876
 N          4.7257998365        2.0784426221        0.5253439356
 C          4.6563742189        0.7681414344        0.7312875250
 C          5.8892337958        0.0227268075        0.9712766385
 C          5.8312723782       -1.2686078182        1.4899678354
 C          6.9926415483       -1.9963153646        1.6580158924
 C          8.2146953523       -1.4451991301        1.3058821055
 C          8.2764125412       -0.1580610924        0.7945052392
 C          7.1194733147        0.5781982440        0.6297043444
 N          3.5268317978        0.0667544990        0.6861862630
 C          1.2135678245       -1.3533742501       -0.3616406027
 N          2.4036787514       -2.0400739018       -0.6107205869
 C          3.4537997290       -1.5816383025       -1.3837755923
 C          3.5094808990       -0.4871973689       -2.2346469263
 C          4.6998456302       -0.2412861964       -2.8905239684
 C          5.8051115825       -1.0736744841       -2.7270431124
 C          5.7397369009       -2.1905551746       -1.9190723332
 C          4.5551223522       -2.4540093263       -1.2451763486
 C          4.1430711687       -3.4893586901       -0.3385626073
 C          4.7835725236       -4.5976527812        0.1979952641
 C          4.0969744691       -5.3873197030        1.0995125235
 C          2.7936511742       -5.0744165972        1.4771929534
 C          2.1370134605       -3.9750858615        0.9565741868
 C          2.8129265197       -3.1918170740        0.0343281044
 C          0.0006983891       -2.0014058898       -0.5659649964
 C         -1.2131008416       -1.3491570595       -0.3798219640
 N         -2.4025030518       -2.0234796829       -0.6594746164
 C         -3.4463179708       -1.5311579152       -1.4216829351
 C         -3.4907157882       -0.4090203351       -2.2366208500
 C         -4.6783239935       -0.1292621379       -2.8840149923
 C         -5.7920633993       -0.9553846892       -2.7488482118
 C         -5.7366056548       -2.1014262020       -1.9820302058
 C         -4.5544929882       -2.3992987778       -1.3180859478
 C         -4.1524027075       -3.4713747660       -0.4505066731
 C         -4.8026316557       -4.5964936624        0.0367335282
 C         -4.1250887369       -5.4277983311        0.9071043789
 C         -2.8216628083       -5.1388711769        1.3025469476
 C         -2.1556722878       -4.0231065643        0.8307659802
 C         -2.8217331766       -3.1976650533       -0.0614294667
 N         -3.5194642964        0.0531557716        0.6934656956
 C         -5.8089877923       -1.3142233704        1.4673384319
 C         -6.9645767180       -2.0534557142        1.6238622328
 H         -9.0960028050       -2.0795822895        1.4194779814
 H         -9.2264244984        0.2364199096        0.5895187465
 H         -7.1511960845        1.5658320189        0.3120909029
 H         -5.6407971741        4.3219648565        0.7445418654
 H         -5.6311993581        6.7998699896        0.6283382873
 H         -3.5417647443        7.9930739016        0.0959779794
 H         -1.4687204644        6.7284332028       -0.3243694923
 H         -1.4916226267        4.2509883136       -0.2104327666
 H         -0.0001248759        1.6771074245        0.5254507696
 H          5.6406341908        4.3411851084        0.6165108763
 H          5.6259338709        6.8153125526        0.4363787791
 H          3.5265925564        7.9924911308       -0.0927185678
 H          1.4485727253        6.7155654462       -0.4475095226
 H          1.4766075321        4.2418766048       -0.2692722989
 H          4.8722753594       -1.6841092273        1.7563437343
 H          6.9442237983       -2.9976902317        2.0597998386
 H          9.1218301277       -2.0187299276        1.4308727544
 H          9.2306713916        0.2687029829        0.5220403163
 H          7.1454917406        1.5780769199        0.2252688709
 H          2.6571723466        0.1637293645       -2.3682930156
 H          4.7754051259        0.6166975109       -3.5424488438
 H          6.7214787500       -0.8407380892       -3.2484566743
 H          6.5915604705       -2.8434927551       -1.8039876117
 H          5.8000705331       -4.8285096614       -0.0829001804
 H          4.5760989694       -6.2552780548        1.5277751183
 H          2.2863911799       -5.7011084772        2.1958846418
 H          1.1354308965       -3.7280919352        1.2733470971
 H          0.0027324836       -3.0209882213       -0.9229456987
 H         -2.6323661286        0.2378398922       -2.3493979048
 H         -4.7447723500        0.7510178031       -3.5065604266
 H         -6.7064957318       -0.6948430107       -3.2605415112
 H         -6.5939620259       -2.7508819082       -1.8907711590
 H         -5.8191712736       -4.8086171384       -0.2583746258
 H         -4.6111892558       -6.3102013786        1.2961248268
 H         -2.3207384202       -5.7984274149        1.9957879380
 H         -1.1534735674       -3.7987698729        1.1613162990
 H         -4.8450224157       -1.7329877248        1.7094970704
 H         -6.9062925452       -3.0676908795        1.9905437754
