  154
       -222.03489766
 C          3.9148583342       -1.4847004856       -5.0124762938
 C          3.0687255796       -1.4163266425       -3.7339063178
 C          3.3274062451       -2.6590023950       -2.8692934619
 C          1.5893701396       -1.4159574943       -4.1289838261
 C          3.4573026295       -0.1775525046       -2.9417224455
 C          4.7390192186       -0.1225332108       -2.3780620228
 C          5.1549112271        0.9172995117       -1.5734435876
 C          4.2528573224        1.9385437887       -1.3231595822
 C          2.9917701106        1.9559119542       -1.9489983926
 C          2.5958599639        0.8903643269       -2.7470654322
 C          2.3395573747        3.1576655039       -1.5018871206
 C          1.0929967045        3.7115089681       -1.7590861677
 C          0.7288659709        4.9006759457       -1.1469488274
 C         -0.5998226172        5.5885203478       -1.4276182253
 C         -1.5791216953        4.6875332217       -2.1867560528
 C         -1.2710422683        6.0135891601       -0.1146084390
 C         -0.3195262831        6.8340822952       -2.2815771796
 C          1.6377855002        5.5098404144       -0.2725926304
 C          2.8754519475        4.9707003738        0.0175409552
 C          3.2310201573        3.7902588051       -0.6103639462
 N          4.3935822067        3.0460636506       -0.5066724819
 C          5.2881804810        3.0893338141        0.5720975047
 C          6.0875575051        4.2037474463        0.7898238326
 C          7.0031351200        4.2107792429        1.8274917469
 C          7.1490172517        3.0968699998        2.6386627340
 C          6.3549512939        1.9828592769        2.4325512698
 C          5.4028327979        1.9786923576        1.4228493881
 C          4.5060033985        0.8262389480        1.2405128826
 N          5.0304275586       -0.3906797577        1.2607610663
 C          4.1972795968       -1.3772722464        0.9340547699
 C          4.7125188980       -2.7443054737        0.9200474408
 C          6.0794092337       -2.9831344441        1.0405443925
 C          6.5578958509       -4.2787390622        1.0038048540
 C          5.6808649521       -5.3410388932        0.8475661575
 C          4.3191497481       -5.1084705095        0.7313578377
 C          3.8351101717       -3.8160505002        0.7686858816
 N          2.9300843387       -1.1933793911        0.5793011733
 C          2.4721327304        0.0500574939        0.6786998978
 C          1.0711747951        0.2958702558        0.3444861125
 C          0.4826082798        1.5226880898        0.6489768072
 C         -0.8560929578        1.7247785071        0.3905476357
 C         -1.6199907654        0.7106709790       -0.1851457889
 C         -3.0682089738        0.8659812178       -0.3104915150
 N         -3.5987671605        2.0763747117       -0.1811512283
 C         -4.9285965706        2.1331377879       -0.2287241502
 C         -5.5707486781        3.4459739010       -0.1871725405
 C         -6.9563155830        3.5532099417       -0.2920877633
 C         -7.5577554194        4.7959669351       -0.2539929191
 C         -6.7858688260        5.9383214098       -0.1077402476
 C         -5.4078786760        5.8354329889        0.0014508681
 C         -4.7994306469        4.5961715628       -0.0384657957
 N         -5.7129899509        1.0613386119       -0.2760726413
 C         -5.0948048810       -0.1123446787       -0.3670252476
 C         -5.9373544100       -1.3115008482       -0.3408761770
 C         -7.2724523443       -1.1839990744       -0.7223539793
 C         -8.1131816541       -2.2771168672       -0.7579228148
 C         -7.6297413508       -3.5256568430       -0.3956785353
 C         -6.3177147822       -3.6668943872        0.0108644433
 C         -5.4554007861       -2.5721371059        0.0467770835
 N         -4.1429733555       -2.7748463428        0.4791658552
 C         -3.2705881771       -3.6988876079       -0.0643212934
 C         -3.4590516622       -4.6158316872       -1.0838419821
 C         -2.3972793631       -5.4282864222       -1.4390107943
 C         -1.1462739290       -5.3467559900       -0.8218140945
 C          0.0179157557       -6.2435191893       -1.2202910926
 C          1.1180749845       -5.3686407384       -1.8354537649
 C          0.5585564005       -6.9636140098        0.0231876487
 C         -0.3745205621       -7.3112759397       -2.2454359443
 C         -0.9585101911       -4.3936990371        0.1712171108
 C         -2.0086912605       -3.5761051341        0.5561401216
 C         -2.1332274096       -2.5222741835        1.5257175599
 C         -1.2411561469       -1.9595802417        2.4278055278
 C         -1.6641196131       -0.9460727610        3.2708314777
 C         -0.7411916235       -0.2958958146        4.2912542539
 C          0.7156074665       -0.7398000517        4.1276307203
 C         -0.7839268881        1.2302363159        4.1381127988
 C         -1.2138583558       -0.6891926506        5.6986197030
 C         -3.0041472444       -0.5401005377        3.2071540734
 C         -3.9103803519       -1.0805755625        2.3181393636
 C         -3.4632275250       -2.0614560484        1.4466426498
 N         -3.7789175954       -0.2473767865       -0.4702319035
 C         -1.0153790800       -0.4928703139       -0.5464695211
 C          0.3189162928       -0.7001878873       -0.2767837397
 N          3.2185304147        1.0857449356        1.0465551008
 H          3.6652243639       -2.3779149726       -5.5817552032
 H          4.9761050130       -1.5119211871       -4.7792588196
 H          3.7261261145       -0.6126246701       -5.6353488086
 H          2.8370365516       -2.5494174905       -1.9049925219
 H          4.3878650487       -2.8125402055       -2.6895066137
 H          2.9394744758       -3.5476290908       -3.3614146152
 H          1.3516097522       -2.3430450382       -4.6472443002
 H          0.9528075557       -1.3436879192       -3.2499017713
 H          1.3623488961       -0.5920799003       -4.8015619074
 H          5.4334000814       -0.9292209015       -2.5566417608
 H          6.1416968362        0.9180171463       -1.1328102110
 H          1.6100474444        0.9081341461       -3.1814414563
 H          0.4289676411        3.1966327311       -2.4331816414
 H         -1.2010724169        4.4427891424       -3.1764358649
 H         -2.5275848725        5.2063062759       -2.3155165959
 H         -1.7683888141        3.7654137304       -1.6416694147
 H         -0.6889764494        6.7634634728        0.4129600462
 H         -2.2495740665        6.4407063262       -0.3226974669
 H         -1.3949734532        5.1555439126        0.5422372832
 H          0.3496918973        7.5172902138       -1.7641863821
 H         -1.2471232812        7.3588152347       -2.5018803005
 H          0.1478823129        6.5481208410       -3.2215324212
 H          1.3741661843        6.4413916276        0.2039070664
 H          3.5391845167        5.4576955971        0.7164575630
 H          5.9961867902        5.0540379452        0.1305142109
 H          7.6182948763        5.0830710425        1.9916793286
 H          7.8796053826        3.0983451296        3.4333489450
 H          6.4470899146        1.1119934015        3.0636918785
 H          6.7449801504       -2.1420833232        1.1565263257
 H          7.6181375533       -4.4645578932        1.0944762255
 H          6.0596161277       -6.3522713255        0.8164616888
 H          3.6380337113       -5.9377160560        0.6115619137
 H          2.7793683320       -3.6101253864        0.6882050709
 H          1.0860024119        2.2928736167        1.1040501337
 H         -1.3373159406        2.6533490597        0.6553180804
 H         -7.5418368578        2.6538731238       -0.4009704496
 H         -8.6315952952        4.8784090059       -0.3374114254
 H         -7.2592711832        6.9089524703       -0.0770911722
 H         -4.8102910052        6.7276533026        0.1212315124
 H         -3.7303990386        4.4929694622        0.0453134733
 H         -7.6260671972       -0.2047000466       -1.0047361695
 H         -9.1411507068       -2.1607992400       -1.0656877399
 H         -8.2805869469       -4.3872035591       -0.4161579589
 H         -5.9456612736       -4.6303714765        0.3266153946
 H         -4.4041915300       -4.6977147066       -1.5998385233
 H         -2.5624253673       -6.1435073824       -2.2277236239
 H          1.4734188229       -4.6272966322       -1.1264979184
 H          0.7333165238       -4.8463936549       -2.7089305799
 H          1.9646840178       -5.9805189114       -2.1408121146
 H          0.9258738189       -6.2595788101        0.7643592343
 H          1.3768997336       -7.6255923379       -0.2541334412
 H         -0.2264258073       -7.5612382276        0.4820642745
 H         -1.1692489038       -7.9475771874       -1.8626436580
 H          0.4870840088       -7.9407334715       -2.4601872950
 H         -0.6974574178       -6.8598598013       -3.1805120073
 H         -0.0024905983       -4.2746037783        0.6573189639
 H         -0.2285381104       -2.3259634780        2.4494288636
 H          0.8281952074       -1.8047149741        4.3175675163
 H          1.3405426720       -0.2065852231        4.8417749365
 H          1.0786922936       -0.5152759989        3.1267134554
 H         -0.0958865799        1.6946950270        4.8419005764
 H         -1.7773753956        1.6258588824        4.3290242033
 H         -0.4901330700        1.5104247856        3.1293509778
 H         -2.2310105773       -0.3508147896        5.8780822047
 H         -1.1901491886       -1.7707976360        5.8150336138
 H         -0.5661351623       -0.2456269755        6.4521676636
 H         -3.3581964501        0.2259953845        3.8803346020
 H         -4.9364055503       -0.7397006788        2.3028989723
 H         -1.6114278353       -1.2570508045       -1.0196732458
 H          0.7949138068       -1.6348539475       -0.5278926047
  154
       -222.03186665
 C          2.8723588031       -1.8331533098       -4.7389002899
 C          2.2113029937       -1.6560418651       -3.3639494671
 C          2.5443671285       -2.8619691934       -2.4758584655
 C          0.6923108229       -1.6229993697       -3.5559539578
 C          2.7472073604       -0.3800418071       -2.7313480981
 C          4.0994376972       -0.3278851666       -2.3657419522
 C          4.6710412073        0.7772784460       -1.7710033700
 C          3.8594774549        1.8745633626       -1.5302498751
 C          2.5126833634        1.8739651438       -1.9431352869
 C          1.9615897770        0.7437578710       -2.5334529877
 C          1.9814532710        3.1603932544       -1.5828891893
 C          0.7236298768        3.7347416594       -1.7098357018
 C          0.5017048521        5.0159897941       -1.2317619026
 C         -0.8430416429        5.7177212145       -1.3600480419
 C         -1.9436323457        4.7937524215       -1.8893712113
 C         -1.2880209346        6.2452636756        0.0108689191
 C         -0.6877536579        6.8934042530       -2.3358354668
 C          1.5642682844        5.6974185928       -0.6233215107
 C          2.8203245709        5.1454498621       -0.4697657839
 C          3.0322493001        3.8696298258       -0.9637106302
 N          4.1703200116        3.0851326174       -0.9396460956
 C          5.3006614452        3.3092719997       -0.1448291444
 C          6.0978462033        4.4255154656       -0.3686666789
 C          7.2450463707        4.6277033675        0.3771904252
 C          7.6253722119        3.7034640508        1.3372980070
 C          6.8385716445        2.5910754880        1.5716661609
 C          5.6633158164        2.3938477810        0.8570405656
 C          4.8023404758        1.2442292002        1.1615378090
 N          5.3699274489        0.0945895587        1.4998900832
 C          4.5419763291       -0.9392828869        1.6394359714
 C          5.0998731282       -2.2070762235        2.1049305692
 C          6.4637451491       -2.3162766215        2.3705147909
 C          6.9841340905       -3.5094312012        2.8325297353
 C          6.1519332619       -4.6001997558        3.0320660667
 C          4.7952719288       -4.4972490650        2.7655850948
 C          4.2678413293       -3.3073967751        2.3036794356
 N          3.2410350499       -0.8897035332        1.3604056018
 C          2.7557734790        0.3194383048        1.1080289214
 C          1.3347185567        0.4728298492        0.8034296991
 C          0.7263512990        1.7136074378        0.9861649799
 C         -0.6073462140        1.8740524470        0.6863025660
 C         -1.3444993321        0.8077232444        0.1702313749
 C         -2.7759397141        0.9772033694       -0.0708958372
 N         -3.2839402445        2.1916279691        0.1127168796
 C         -4.5949703386        2.3090141719       -0.0759163917
 C         -5.1923618938        3.6375291926        0.0612036070
 C         -6.4572715134        3.9000624731       -0.4590987182
 C         -7.0138052452        5.1566696381       -0.3193959137
 C         -6.3205343976        6.1547474080        0.3480157613
 C         -5.0653073979        5.8947819219        0.8748240291
 C         -4.4990733961        4.6433080916        0.7296507735
 N         -5.3961993117        1.2861601044       -0.3419599821
 C         -4.8116144511        0.0939668855       -0.4594571305
 C         -5.7161638228       -1.0429131779       -0.6576327225
 C         -7.0139627166       -0.7505376235       -1.0844684351
 C         -7.9421997304       -1.7430296951       -1.3138691257
 C         -7.5927103539       -3.0674237476       -1.0968200940
 C         -6.3221041485       -3.3778707248       -0.6579876990
 C         -5.3650207488       -2.3854354037       -0.4394694967
 N         -4.1002355680       -2.7966805433       -0.0144858333
 C         -3.3678697607       -3.7936084208       -0.6344843750
 C         -3.6395304041       -4.5224797350       -1.7797210489
 C         -2.7330116844       -5.4906709282       -2.1717398518
 C         -1.5510433688       -5.7437900161       -1.4709851258
 C         -0.5815758419       -6.8435323634       -1.8832663672
 C          0.7598125627       -6.2086561211       -2.2705810478
 C         -0.3806456029       -7.8045433621       -0.7026646281
 C         -1.0802952085       -7.6638449649       -3.0764025309
 C         -1.2583555712       -4.9597304306       -0.3619552334
 C         -2.1567507573       -3.9929140737        0.0622483435
 C         -2.1639915289       -3.0622844291        1.1589811745
 C         -1.2448374823       -2.7744479655        2.1586180997
 C         -1.5356848866       -1.8030981945        3.1016165731
 C         -0.5550036014       -1.4104605889        4.1969127805
 C          0.8318124602       -2.0270365779        3.9887408556
 C         -0.3861941293        0.1150723518        4.2145167499
 C         -1.1049871274       -1.8859692670        5.5492511455
 C         -2.7913662821       -1.1830707383        3.0540026051
 C         -3.7220928510       -1.4478482445        2.0701473776
 C         -3.3866609954       -2.3621604377        1.0840619943
 N         -3.4982672313       -0.0930547951       -0.3956270074
 C         -0.7241015256       -0.4204137173       -0.0504694961
 C          0.6018085124       -0.5917619112        0.2847886157
 N          3.4907763181        1.4248308361        1.0726897809
 H          2.4820580448       -2.7204335165       -5.2335823770
 H          3.9499554486       -1.9390947974       -4.6444865274
 H          2.6694046280       -0.9687706019       -5.3677922103
 H          2.0583638726       -2.7619085070       -1.5085771023
 H          3.6129934870       -2.9615410306       -2.3091482464
 H          2.1920735685       -3.7757776817       -2.9472918435
 H          0.3528990227       -2.5829423806       -3.9407927802
 H          0.1849575483       -1.4392614320       -2.6119960263
 H          0.4032139644       -0.8559559513       -4.2705363836
 H          4.7334113597       -1.1822909296       -2.5484653422
 H          5.7153626498        0.7772063832       -1.4914930916
 H          0.9223177130        0.7635392496       -2.8164684750
 H         -0.0610490149        3.1614824030       -2.1745313589
 H         -1.7145350269        4.4473319912       -2.8945533100
 H         -2.8857763967        5.3381481933       -1.9314927854
 H         -2.0840509718        3.9338064610       -1.2386612741
 H         -0.6278073206        7.0279637369        0.3740865722
 H         -2.2925191296        6.6563784080       -0.0595598971
 H         -1.2924317701        5.4383515423        0.7398162365
 H          0.0599795487        7.5995538413       -1.9833287369
 H         -1.6338853096        7.4196532170       -2.4454050960
 H         -0.3777405137        6.5314406978       -3.3140502956
 H          1.4076012321        6.6979100717       -0.2500788604
 H          3.6082219852        5.6948967058        0.0235784253
 H          5.8157607841        5.1226718432       -1.1438348331
 H          7.8546545784        5.5001181651        0.1937660674
 H          8.5315958768        3.8537791829        1.9040783098
 H          7.1105377817        1.8681824951        2.3255921986
 H          7.0949553415       -1.4566806665        2.2080441241
 H          8.0409439722       -3.5927159818        3.0399965320
 H          6.5613685566       -5.5313295094        3.3960634478
 H          4.1497454719       -5.3491270140        2.9222903671
 H          3.2148259028       -3.2056498906        2.0950160148
 H          1.3120387786        2.5323218805        1.3739742140
 H         -1.0995866435        2.8192588822        0.8486541940
 H         -6.9853944783        3.1123482940       -0.9732913637
 H         -7.9922361678        5.3617428339       -0.7284731389
 H         -6.7608619948        7.1348628227        0.4604624948
 H         -4.5301356111        6.6706301175        1.4029776546
 H         -3.5259718661        4.4215794061        1.1366181327
 H         -7.2679267887        0.2860036743       -1.2391271580
 H         -8.9344648708       -1.4899374358       -1.6548639090
 H         -8.3136348676       -3.8552612802       -1.2571698789
 H         -6.0543194011       -4.4045668322       -0.4564003894
 H         -4.5343886249       -4.3494002475       -2.3588528473
 H         -2.9689242562       -6.0623814204       -3.0539709727
 H          1.1840871274       -5.6462721487       -1.4436703060
 H          0.6172740389       -5.5312795729       -3.1100951595
 H          1.4723929233       -6.9770940699       -2.5637686457
 H          0.0493418870       -7.2957034271        0.1552708877
 H          0.2881307675       -8.6141427670       -0.9876121196
 H         -1.3339304317       -8.2340926194       -0.4016946276
 H         -2.0300459507       -8.1440866081       -2.8522865792
 H         -0.3558517095       -8.4428066103       -3.3069701562
 H         -1.1941802895       -7.0427017706       -3.9619298992
 H         -0.3403564395       -5.0967281735        0.1887301032
 H         -0.3120067869       -3.3125417828        2.1733713082
 H          0.7953281192       -3.1122831046        4.0494806867
 H          1.5060372264       -1.6762290553        4.7680811235
 H          1.2463775527       -1.7306356241        3.0277095582
 H          0.3620818400        0.3987504027        4.9521307382
 H         -1.3139423384        0.6204888149        4.4670920877
 H         -0.0601847435        0.4672529475        3.2385345243
 H         -2.0773901324       -1.4445034085        5.7523608792
 H         -1.2158619320       -2.9685154266        5.5518807483
 H         -0.4257241227       -1.6056574479        6.3519889943
 H         -3.0558348498       -0.4637215714        3.8141366136
 H         -4.6816222815       -0.9499792990        2.0721029516
 H         -1.3010338358       -1.2267814617       -0.4730377631
 H          1.0929166910       -1.5409844739        0.1394481883
