  134
       -203.67612041
 C        -14.4345420010        3.6280165110       -1.5459778048
 C        -14.9531523940        2.3942207314       -1.9042175458
 C        -14.3781206071        1.2299888478       -1.4338436894
 C        -13.2718454852        1.2864311852       -0.5860462191
 N        -12.6885099414        0.1102432351       -0.1022089124
 C        -13.4959830850       -0.9834233606        0.2307072606
 C        -14.7371163998       -0.7870825261        0.8362807768
 C        -15.5318578213       -1.8696154112        1.1588617999
 C        -15.1031886510       -3.1598009341        0.8918750753
 C        -13.8699496166       -3.3602039089        0.2932423517
 C        -13.0708648057       -2.2842185088       -0.0399073470
 C        -11.3034433479        0.0217932594        0.0391301681
 C        -10.7413238256       -0.6969753487        1.0975495985
 C         -9.3749239162       -0.8021206203        1.2231509703
 C         -8.5129630228       -0.1812087201        0.3126081648
 C         -7.0638583939       -0.3033249042        0.4453140206
 C         -6.4628625529       -1.5903507622        0.4626311147
 C         -7.2221712048       -2.7581260683        0.2617154925
 C         -6.6352217247       -4.0043483823        0.2174314775
 C         -5.2550693603       -4.1226594475        0.3174569310
 C         -4.4781681199       -2.9928448020        0.4724805286
 C         -5.0480482544       -1.7144025127        0.5880839554
 C         -4.2315612717       -0.5478002823        0.7014915383
 C         -2.8066465782       -0.6948479740        0.8880543123
 C         -2.3440410044       -1.4841709938        1.9569145645
 C         -1.0137677565       -1.5854066068        2.2568804100
 C         -0.0393473794       -0.9449865978        1.4624639457
 C          1.3368438552       -1.0244339305        1.7560194998
 C          2.2682123237       -0.4279498057        0.9558245009
 C          1.8854408405        0.2779989392       -0.2097734423
 C          2.8368053914        0.8866514575       -1.0638741161
 C          4.2792428266        0.7141266278       -0.8483004419
 C          5.0789433156        1.8258237250       -0.5254858367
 C          4.5163088502        3.1096261290       -0.3176496653
 C          5.2987859573        4.1879506947       -0.0269261019
 C          6.6937537092        4.0436465679        0.0713060754
 C          7.2696713068        2.8180051770       -0.0854800883
 C          6.4890648072        1.6662872390       -0.3590157090
 C          7.0692661660        0.3932409086       -0.4863169453
 C          8.5215481686        0.2247291448       -0.2952578491
 C          9.3395655856       -0.1600454034       -1.3554687555
 C         10.6991216730       -0.3133261809       -1.1826263869
 C         11.2806646668       -0.1023223699        0.0681792851
 N         12.6572841580       -0.2683549506        0.2486865347
 C         13.3330140634       -1.2849681780       -0.4355424626
 C         14.6224173174       -1.0730378225       -0.9235271629
 C         15.2866434685       -2.0808794649       -1.5946798254
 C         14.6782808789       -3.3088013155       -1.7980500518
 C         13.3961855974       -3.5231918086       -1.3191678348
 C         12.7266659859       -2.5244575724       -0.6396726043
 C         13.3586437082        0.5784801418        1.1134106889
 C         14.4042681652        0.0839733740        1.8932530649
 C         15.0972216451        0.9245236557        2.7421262785
 C         14.7571785842        2.2642122071        2.8358533589
 C         13.7167582813        2.7596282687        2.0669901327
 C         13.0232816334        1.9291844167        1.2086053788
 C         10.4639173587        0.2756679121        1.1344556042
 C          9.1075966657        0.4442625631        0.9494568053
 C          6.2714881591       -0.7207319111       -0.7988576790
 C          6.8199399005       -2.0242177475       -0.9045078557
 C          6.0472697613       -3.0925307397       -1.2502953521
 C          4.6784129142       -2.9175598271       -1.5189845233
 C          4.1069078612       -1.6860593518       -1.3954777597
 C          4.8671556585       -0.5566396055       -1.0021474671
 C          2.3971565249        1.6490880244       -2.1461646439
 C          1.0600019217        1.7653825070       -2.4446545866
 C          0.0874979683        1.1386373325       -1.6453311010
 C         -1.2905314492        1.1955741217       -1.9506928892
 C         -2.2195355456        0.6042743321       -1.1449321254
 C         -1.8452646545       -0.0674684384        0.0411622032
 C         -0.4640793366       -0.1984999091        0.3347212481
 C          0.5036594041        0.4092424716       -0.5042159495
 C         -4.8443106566        0.7436285666        0.6965605706
 C         -4.0998934832        1.9068701141        0.9508016098
 C         -4.6925628908        3.1503415960        1.0047411683
 C         -6.0683611982        3.2692908197        0.8486783486
 C         -6.8359838652        2.1420702244        0.6549966639
 C         -6.2587044608        0.8615714323        0.5624481303
 C         -9.0845177892        0.5516844025       -0.7329416460
 C        -10.4505094656        0.6454458092       -0.8751468343
 C        -12.7555709090        2.5311945191       -0.2254964765
 C        -13.3336880083        3.6892901820       -0.7070491166
 H        -14.8853422969        4.5354103398       -1.9178584356
 H        -15.8076407665        2.3370727693       -2.5622403558
 H        -14.7774460228        0.2687281428       -1.7225704876
 H        -15.0682485415        0.2176137158        1.0548734369
 H        -16.4894526520       -1.7046423705        1.6302635898
 H        -15.7262981322       -4.0031278503        1.1476429446
 H        -13.5309553709       -4.3621898235        0.0751864774
 H        -12.1154659384       -2.4417723897       -0.5185822014
 H        -11.3901603651       -1.1634487357        1.8245064504
 H         -8.9555999440       -1.3418263947        2.0597625700
 H         -8.2883974956       -2.6727691166        0.1184900481
 H         -7.2470905133       -4.8833019775        0.0764705905
 H         -4.7858885456       -5.0929755752        0.2492691329
 H         -3.4037886745       -3.0936604102        0.4864085427
 H         -3.0759038804       -1.9545974557        2.5987578411
 H         -0.6919492293       -2.1457917436        3.1230246994
 H          1.6460762945       -1.5732511289        2.6344526969
 H          3.3175751193       -0.4931478380        1.2022708161
 H          3.4447383630        3.2218930440       -0.3894973748
 H          4.8524272058        5.1595033027        0.1270760105
 H          7.3044568270        4.9102190295        0.2791937610
 H          8.3409882072        2.7086042050       -0.0056460680
 H          8.9013540549       -0.3195980452       -2.3301161444
 H         11.3235471943       -0.5941812829       -2.0181661228
 H         15.0947780010       -0.1128883966       -0.7755060593
 H         16.2835373299       -1.9024366583       -1.9701521785
 H         15.1994869042       -4.0927492590       -2.3260718368
 H         12.9160828002       -4.4792317751       -1.4681424952
 H         11.7314721840       -2.6980381075       -0.2571248078
 H         14.6642120077       -0.9626512974        1.8306986325
 H         15.9033397928        0.5278492980        3.3417541348
 H         15.2990172830        2.9171120613        3.5030307351
 H         13.4484069815        3.8040607755        2.1288975911
 H         12.2203328497        2.3210700224        0.6015207200
 H         10.9013387357        0.4308351148        2.1099075700
 H          8.4840200395        0.7297172432        1.7844044428
 H          7.8720068606       -2.1596053910       -0.7024373874
 H          6.4826337403       -4.0782882624       -1.3269088616
 H          4.0820260789       -3.7666133763       -1.8191808561
 H          3.0546628105       -1.5571470495       -1.5994734700
 H          3.1351149779        2.1186960879       -2.7818330147
 H          0.7423905245        2.3285300143       -3.3103254396
 H         -1.5997219618        1.7174208030       -2.8452441303
 H         -3.2660356047        0.6479998177       -1.4077922285
 H         -3.0368267259        1.8250506856        1.1163763971
 H         -4.0880672629        4.0264308251        1.1867522254
 H         -6.5395524873        4.2397230326        0.9035962767
 H         -7.9092758892        2.2382067215        0.5945801122
 H         -8.4390125061        1.0152244507       -1.4646959193
 H        -10.8726387072        1.1903803326       -1.7069803289
 H        -11.9051826319        2.5809521893        0.4386759048
 H        -12.9268640997        4.6470104896       -0.4177748875
