134
 energy: -203.678826949699 gnorm: 0.000111112987 xtb: 6.7.1 (edcfbbe)
C          -14.24285790522634        3.11601532249055       -2.70742063992344
C          -14.80285727708665        1.84908419104412       -2.67944077516410
C          -14.27869907956112        0.87013366121138       -1.85822188039498
C          -13.18286331543642        1.15124055608416       -1.04229133758777
N          -12.65087267114170        0.16394574351361       -0.20484138960779
C          -13.50575033098999       -0.74153129180218        0.43430943610181
C          -14.74448446784213       -0.32173427880133        0.91899952542058
C          -15.58649461495298       -1.22002502649099        1.54478660258644
C          -15.20801860669183       -2.54321330256973        1.70432032899973
C          -13.97742202415751       -2.96443218236141        1.22723864510817
C          -13.13129321691922       -2.07584779065584        0.59333051914202
C          -11.27265608974993        0.08021127203323       -0.01013238571859
C          -10.74885356509587       -0.29899018314457        1.22907529825054
C           -9.38887847587899       -0.39453471714563        1.41430544106637
C           -8.49157589450258       -0.09677541024094        0.38116784372177
C           -7.05183375692229       -0.19354989059971        0.57805854374260
C           -6.47444092747006       -1.41767956655687        1.03670353636496
C           -7.25006947007130       -2.56868571699530        1.22192915081913
C           -6.68497652747059       -3.77283704965471        1.61722658721047
C           -5.31737216442867       -3.86811522412501        1.78257203224955
C           -4.51706814698727       -2.75679212340836        1.55566889215280
C           -5.06362335948033       -1.51481492667560        1.21462955945171
C           -4.22515228805712       -0.39011442306339        0.92683101922403
C           -2.79417868544601       -0.49054897302106        1.14179563207494
C           -2.32193527479441       -0.83590426890965        2.41727867184721
C           -0.98209335991359       -0.86011297878978        2.70886188236990
C           -0.02322375603379       -0.57823804695382        1.72262410883289
C            1.36665343264048       -0.59086155437854        1.99709038257159
C            2.28095390263490       -0.33527201734469        1.02531899211634
C            1.87343480539027       -0.05520938041338       -0.30752428906352
C            2.80449588832124        0.19460963987401       -1.33184522039809
C            4.25875781201967        0.17359880709454       -1.05440189605086
C            4.90766133976002        1.34279035187172       -0.63923863032606
C            4.19407766334199        2.55433078714156       -0.44447400279133
C            4.83298487048095        3.69264326661452       -0.06171012538224
C            6.22842224758035        3.69007997869196        0.13636308578492
C            6.94704246667925        2.54707237777324       -0.03476909081659
C            6.31829115432963        1.33055783437495       -0.40931782869247
C            7.04274249790106        0.14167785295926       -0.58312091227374
C            8.49965605549465        0.12502878612733       -0.34596082694308
C            9.38754255095026       -0.08374373071929       -1.39825642572887
C           10.75002590627146       -0.09749762297373       -1.18346190486675
C           11.26419192140060        0.08371119898485        0.10064494191030
N           12.64500440362221        0.05990333436714        0.32353052705912
C           13.45118646512509       -0.83293714112020       -0.39085771551927
C           14.72759034381023       -0.45637187498365       -0.80856707488667
C           15.52024978756223       -1.34347363885041       -1.51021224792997
C           15.05486242060248       -2.61218463183101       -1.81495471782686
C           13.78613072342728       -2.98974598414283       -1.40669274653819
C           12.98923549584194       -2.11304312876799       -0.69695361905480
C           13.21636872149907        0.92724520575767        1.26068202668513
C           14.28458136105542        0.50888645526563        2.05408048546957
C           14.84732727030157        1.37103951478483        2.97468424532777
C           14.35292642128554        2.65606847303987        3.12751555901413
C           13.28900473725735        3.07513991391617        2.34562250490345
C           12.72509750365934        2.22350180578694        1.41604127545597
C           10.37752775256092        0.28768373931922        1.15806188731831
C            9.01670976487976        0.31439552327108        0.93298317742259
C            6.38809967245069       -1.03334597098629       -0.98267248609737
C            7.07717059407521       -2.26607907984061       -1.12779546593861
C            6.42749487303950       -3.39712060268894       -1.51616898205337
C            5.04298785386590       -3.37080666513609       -1.77828205824581
C            4.34078956768391       -2.21482578937263       -1.63286886189322
C            4.98034994175311       -1.01382878460214       -1.22837881879118
C            2.36119500256247        0.45677406482076       -2.62256345751480
C            1.01529380766073        0.47012263487848       -2.92513381767601
C            0.05804412324731        0.22365037903987       -1.93466458748137
C           -1.33389453367712        0.19971440982875       -2.21425456363738
C           -2.24636764476907       -0.02787616197567       -1.23516636404737
C           -1.85033367531271       -0.23991534524208        0.11246137953269
C           -0.46524219660952       -0.28123554044793        0.40908653836357
C            0.48844955718468       -0.03428019333567       -0.61005790693267
C           -4.80943620967450        0.84266043270135        0.48673116075129
C           -4.03710192136287        1.99917040683128        0.33457476454816
C           -4.60368164399456        3.21017176837296       -0.03448515611994
C           -5.97049288083489        3.30187582834269       -0.21396041912497
C           -6.76789638835564        2.18425809670097       -0.01773163443770
C           -6.21991140068077        0.93835454284701        0.31244435840993
C           -9.02636121715328        0.29636861539157       -0.85213035648828
C          -10.38557784547497        0.37346860052144       -1.04988006165089
C          -12.62540074585207        2.42963690280293       -1.07086678032587
C          -13.15240271601859        3.39930164592394       -1.90115895623978
H          -14.65363239160038        3.87734658120915       -3.35282100420960
H          -15.64983908690175        1.61811220277847       -3.30847793929263
H          -14.71004820607010       -0.12013999321529       -1.84559791061071
H          -15.03685468125836        0.71187225004678        0.80482111771847
H          -16.54192491377978       -0.88202060500333        1.91805537205163
H          -15.86773882443053       -3.24135222726215        2.19654198591741
H          -13.67715738779949       -3.99556382368688        1.34150260351038
H          -12.17782686762745       -2.40895151524467        0.21030623634991
H          -11.42271088466501       -0.50460222801235        2.04813215596998
H           -9.00100858381937       -0.65969866412273        2.38703185017573
H           -8.31200721000660       -2.52732789080303        1.03486323784585
H           -7.31703170347525       -4.63523603078570        1.77013309942573
H           -4.86257978995254       -4.80600442489796        2.06488175617015
H           -3.44548176324649       -2.86160812900300        1.62862639037927
H           -3.04478831190818       -1.02333294758660        3.19899237506241
H           -0.64985605804118       -1.08249940968233        3.71300448620122
H            1.68666894095415       -0.81346396364677        3.00541825618067
H            3.33833034540743       -0.34741017616290        1.24666910754486
H            3.12636233927254        2.55209564380131       -0.60892484650330
H            4.27902333243680        4.60827805654345        0.08513385497483
H            6.72300720063284        4.60709141953187        0.42216067476775
H            8.01739640471083        2.55148626942915        0.10840842204983
H            9.00045767492763       -0.21890554880396       -2.39797490809963
H           11.42808629320869       -0.24647112658960       -2.01106479368715
H           15.08926451031330        0.53589961906041       -0.58158128856897
H           16.50600385464048       -1.03802017560250       -1.82920981876527
H           15.67618104716770       -3.30135599245620       -2.36642706797923
H           13.41654172789034       -3.97876256377433       -1.63486841515368
H           12.00467294116472       -2.41436832821518       -0.37016927609052
H           14.66551270975993       -0.49602972623972        1.94466663239950
H           15.67298050505161        1.03328954832587        3.58378339339418
H           14.79339801879867        3.32572426300848        3.85046674426032
H           12.90004380654510        4.07705299948900        2.45378994558826
H           11.90292172581536        2.55702510716139        0.79980533480547
H           10.76453343459463        0.42056154624342        2.15780062198411
H            8.33898755141921        0.46478252830165        1.76102186432875
H            8.13563313249798       -2.29329206597406       -0.91546664254588
H            6.96746382208287       -4.32694409581539       -1.62128451733861
H            4.54489795525227       -4.27854688583829       -2.08607500722341
H            3.27681367144850       -2.19163982633121       -1.81842134065855
H            3.09207173496747        0.64741944404340       -3.39600858610520
H            0.68841848084257        0.66866625170785       -3.93573983389962
H           -1.65402803240569        0.36087756794693       -3.23397025295251
H           -3.29963062506451       -0.05547185389097       -1.47193404620973
H           -2.97435846080773        1.95356878552691        0.51551548558438
H           -3.97392722277621        4.07804111389646       -0.16172565800392
H           -6.42585867652890        4.24289215460237       -0.48545215862891
H           -7.83906005127943        2.28494406124298       -0.10215420464287
H           -8.35590378975903        0.49811492698146       -1.67479941390512
H          -10.77721962164823        0.64809289255246       -2.01855799935301
H          -11.78327909688427        2.65597211760085       -0.43340324029434
H          -12.71354321969102        4.38607852034500       -1.91206994296542
