134
 energy: -203.679059031784 gnorm: 0.000110143524 xtb: 6.7.1 (edcfbbe)
C          -14.36467548571713        3.70119631171345       -1.52983499516069
C          -14.89714555914838        2.47888563651586       -1.90663072547384
C          -14.33973079656899        1.30134863671035       -1.44825123941407
C          -13.23777083923548        1.33256256188745       -0.59359611306458
N          -12.67281394555673        0.14279976974987       -0.12066401092227
C          -13.49675593123107       -0.94296218781752        0.19718372106547
C          -14.74096932598179       -0.73588727592164        0.79275767454915
C          -15.55241576239510       -1.81078729935113        1.09878063199939
C          -15.13753580842446       -3.10411046124907        0.82547790498534
C          -13.90099776263497       -3.31528754012856        0.23747875459663
C          -13.08532142925685       -2.24687388720709       -0.07948024013718
C          -11.29033644035945        0.03695156178199        0.03059637908966
C          -10.74316393197680       -0.69684167931068        1.08681081160832
C           -9.37924054303640       -0.81336235273825        1.22474928105205
C           -8.50181564932227       -0.19006419109805        0.32886817349548
C           -7.05790262776052       -0.31654187231948        0.47707075523374
C           -6.45899856288664       -1.61196184075518        0.52951118085726
C           -7.21602880002783       -2.77670962440693        0.34501345543332
C           -6.63053108564857       -4.03311362597610        0.34179244635241
C           -5.25932381976307       -4.15273887743440        0.46592675805645
C           -4.47841897510393       -3.01438795333732        0.59928019175655
C           -5.04624807016892       -1.73682287102385        0.66914888628020
C           -4.22645977143110       -0.56569778691523        0.75336329694900
C           -2.79688793946083       -0.70815406785620        0.94089468960898
C           -2.32931998903971       -1.44129069526968        2.04350547413899
C           -0.99310985634451       -1.53657545158692        2.33252045851065
C           -0.02965794444201       -0.93973914945044        1.50168856938883
C            1.35544042018429       -1.01164337197585        1.78306381827633
C            2.27575511334541       -0.45509721754444        0.95143123269526
C            1.87994530190518        0.20700961888628       -0.24170989662245
C            2.81886120260963        0.76446668318765       -1.13290807023095
C            4.26955940860484        0.62223392523812       -0.90145246250240
C            5.03496459212105        1.74311060120590       -0.54795296251322
C            4.43855369725288        3.01403658772232       -0.34004180832383
C            5.19084453863606        4.10348255161752       -0.02448676208897
C            6.58947559268680        3.98844942685332        0.09743030280356
C            7.19660731200611        2.78136340584510       -0.06703710578305
C            6.44725052480525        1.61430561097328       -0.36939771675982
C            7.05786128343470        0.35952373775277       -0.51484398278291
C            8.51314823457342        0.22013277634653       -0.31302306782816
C            9.34916148995412       -0.11680667618290       -1.37475684984567
C           10.70984524641654       -0.24834035896176       -1.19090724092677
C           11.27330081276870       -0.05975483787352        0.07130539480129
N           12.65140164901854       -0.20449344988280        0.26337771325783
C           13.34954093993123       -1.20238071450580       -0.42524852954282
C           14.64338852974616       -0.96927210690108       -0.89121096108881
C           15.32851712785311       -1.95965413375813       -1.56745734843654
C           14.73707338473981       -3.19087039242795       -1.79853755669419
C           13.45054630793288       -3.42617529911759       -1.34201948175478
C           12.76038224305793       -2.44531874592136       -0.65722976675020
C           13.32744407110676        0.64744336336103        1.14306858236900
C           14.37461520775254        0.16760503039588        1.92972863684911
C           15.04125652264882        1.01471665244320        2.79313045235882
C           14.67294445849546        2.34628387356910        2.89499648755622
C           13.63029241641369        2.82689644634852        2.11987146838212
C           12.96314903444698        1.98994726272973        1.24707044575985
C           10.43861606348646        0.27383217948677        1.13806085485366
C            9.08054387048707        0.41777477744049        0.94331851670355
C            6.28990055649293       -0.76563341513119       -0.85283802254241
C            6.86669840398799       -2.05727680895058       -0.97126222413841
C            6.11735698708288       -3.13659853212973       -1.32642378303182
C            4.74169992213525       -2.99051031982766       -1.59103911551195
C            4.14428813512857       -1.77454896724898       -1.46237631799194
C            4.88374870046654       -0.62918370830646       -1.06766108336912
C            2.37644508315190        1.44532709746525       -2.26330164135934
C            1.03358624604963        1.55393240645020       -2.55290932585967
C            0.07152996796392        0.98846308371101       -1.70649470535093
C           -1.31603541391139        1.04183965693203       -1.99582798527435
C           -2.23429029620192        0.49980060393099       -1.15374488922733
C           -1.84700357645771       -0.12686684506587        0.05926154688092
C           -0.46370136850973       -0.24584018371607        0.34462524712025
C            0.49620000390642        0.32043706766678       -0.53181042094745
C           -4.83280771109799        0.73246857961088        0.71574384562194
C           -4.08106877013821        1.89219276457774        0.93706377625766
C           -4.66769587296435        3.14734582144827        0.95851826141337
C           -6.03672306268682        3.26832936504950        0.80616691803203
C           -6.81422706080646        2.13341522781257        0.64269264037784
C           -6.24516679926219        0.85429620700840        0.57464082827410
C           -9.06005522731351        0.55507313959294       -0.71705421228058
C          -10.42332779153709        0.66046197654381       -0.87099501734094
C          -12.70742616556668        2.56583186430699       -0.21452710611923
C          -13.26767928014416        3.73742428938116       -0.68445826958890
H          -14.80185834281976        4.61904772067221       -1.89218510854014
H          -15.74877724938573        2.44125810080901       -2.56975628523965
H          -14.74977583721666        0.34917404450011       -1.75166945939636
H          -15.06179584761908        0.27103169469621        1.01638571384824
H          -16.51257594302797       -1.63732518901847        1.56184250394061
H          -15.77360462643803       -3.94148525036584        1.06860194376444
H          -13.57221213388845       -4.31974703585194        0.01522531006717
H          -12.12732011642014       -2.41276149267998       -0.55009554224139
H          -11.40223316722107       -1.16342046787667        1.80451705432823
H           -8.97319411432447       -1.35912811623927        2.06392582893492
H           -8.27957342975016       -2.69595328178387        0.18145748377812
H           -7.24761732665602       -4.91076158948500        0.21704268861557
H           -4.78884793266579       -5.12431845340231        0.43681087914422
H           -3.40482750343111       -3.11869890694115        0.63288455635011
H           -3.05590027790293       -1.88020560441657        2.71295173749826
H           -0.66564030927991       -2.06210228920119        3.21832807923089
H            1.66978933079022       -1.52436071372334        2.68134334786813
H            3.32884005420694       -0.51314383395080        1.18394184568892
H            3.36632186291121        3.10089226766943       -0.43618158335045
H            4.72266046315276        5.06463493768192        0.13011357098514
H            7.17496670892270        4.86701313339476        0.32648592550322
H            8.26890048457527        2.69518876734919        0.02731413410537
H            8.92424605615561       -0.25895099107984       -2.35799918345195
H           11.34857211339539       -0.49649322450690       -2.02598620134434
H           15.10329102304558       -0.00660970213807       -0.72180049796732
H           16.32916470704581       -1.76491530074023       -1.92459440399510
H           15.27467933976474       -3.96108494798476       -2.33038559683858
H           12.98304146630314       -4.38489790659776       -1.51259503757100
H           11.76146944407131       -2.63562206427531       -0.29267722876979
H           14.65722953957454       -0.87271191020296        1.86038950929840
H           15.84922019065803        0.62937978647528        3.39768959562251
H           15.19448885180735        3.00434952717384        3.57326554307973
H           13.33930036243672        3.86488951102576        2.18843920271909
H           12.15799229018016        2.37040724765844        0.63558531631990
H           10.86344593650794        0.41413271430943        2.12129707134627
H            8.44235409879069        0.66761425612574        1.77869336351184
H            7.92117014707941       -2.17140293921471       -0.76851119326470
H            6.57240822804335       -4.11274830480638       -1.41110756374921
H            4.16465992246212       -3.85293174823237       -1.89104430091694
H            3.08849133588719       -1.66463706847754       -1.66007745740919
H            3.11012245486742        1.87411345134653       -2.93177535038770
H            0.71072173173627        2.06898982198727       -3.44625938234678
H           -1.63035361337911        1.52032471394041       -2.91262324777445
H           -3.28470805635326        0.53798007975904       -1.40136722857553
H           -3.01809164071134        1.80963693178160        1.10276157973803
H           -4.05362061798801        4.02216362162202        1.11204867403302
H           -6.50715814542860        4.24012412502973        0.83602294814784
H           -7.88692846787416        2.23761418474159        0.58766996252382
H           -8.40494979826460        1.01668133941793       -1.44142897423843
H          -10.83339398823175        1.21506933657064       -1.70251011283378
H          -11.86034818760102        2.59620617387078        0.45503574127275
H          -12.84995811343418        4.68596836188699       -0.38080948405933
