134
 energy: -203.739620834033 gnorm: 0.000028637085 xtb: 6.7.1 (edcfbbe)
C          -14.33597640465563        3.06705309013443       -2.61608987901716
C          -14.85834615052520        1.78401776780976       -2.61846852325984
C          -14.29921146088280        0.79862035575306       -1.82857788710924
C          -13.20633582091194        1.08825852928014       -1.01179672228118
N          -12.63885394728377        0.09517005771535       -0.20600911345353
C          -13.45428768450174       -0.86196733796406        0.40795200679314
C          -14.71113431868964       -0.51104758958958        0.90034349011236
C          -15.51280486739978       -1.46100222322930        1.50246310804100
C          -15.07561210046426       -2.76904566226375        1.63250739814764
C          -13.82640411387555       -3.12206375174332        1.14906698910287
C          -13.02101983538912       -2.18148454101027        0.53744713165440
C          -11.25427001216765        0.05906521983117       -0.01222587777657
C          -10.72040230227615       -0.29948509942676        1.22580691497720
C           -9.35420890784506       -0.34318351317432        1.41092615458282
C           -8.48157434594732       -0.01745697941406        0.37584564679224
C           -7.02040504270095       -0.06043490815288        0.58234648682983
C           -6.38298580480919       -1.29056855692931        0.80289482451120
C           -7.09650422326949       -2.51791657455436        0.79300307087468
C           -6.46404647776466       -3.70459750841458        1.00190330977774
C           -5.07280084357893       -3.74165071923941        1.22353341567660
C           -4.34831535340297       -2.59022585860014        1.22334090483899
C           -4.97026819428626       -1.33098268836419        1.01623320912012
C           -4.22791655414779       -0.14345113874304        0.99505596170562
C           -2.76987705243060       -0.18489062247874        1.24521396878058
C           -2.30960107743891       -0.30728330053607        2.55134080233323
C           -0.95884902870604       -0.33631959483281        2.83326904100511
C           -0.01475662974793       -0.24449886586509        1.80949021287914
C            1.38709666626249       -0.27022135392756        2.06400021989488
C            2.28669567975374       -0.17916679233824        1.05812979748011
C            1.86614064062492       -0.05278964699686       -0.29915384336868
C            2.78497416762582        0.04552698338060       -1.35564981654370
C            4.24230161407681        0.04088933628452       -1.09561692992575
C            4.88220419541920        1.22119802661730       -0.69590069518122
C            4.16162867469450        2.43166469637045       -0.52037111665820
C            4.79264099397461        3.57858012815000       -0.15026884283349
C            6.18719151064181        3.58727890379665        0.05273388321461
C            6.91332516242689        2.44723460100173       -0.10540365072180
C            6.29319407351666        1.22280985742842       -0.46836538037717
C            7.02795159526705        0.03892551685046       -0.63332005045943
C            8.48365773705928        0.03652004450911       -0.38827341159472
C            9.38144116181293       -0.16897732212710       -1.43262878180295
C           10.74231533258490       -0.16906639197086       -1.20702779599996
C           11.24494976454173        0.02320452958366        0.08008123632193
N           12.62376334123214        0.01337951554829        0.31405867345345
C           13.44453255853841       -0.87462756349845       -0.38991156504616
C           14.72056291340711       -0.48729308421475       -0.79856539580521
C           15.52775277547365       -1.36956461060847       -1.48968414371600
C           15.07740371445060       -2.64409032332735       -1.79269017467015
C           13.80915992008673       -3.03243192674936       -1.39319835606259
C           12.99780232334327       -2.16055293851027       -0.69395574340144
C           13.17935090195830        0.88914566505318        1.25316971001767
C           14.24298275621447        0.48244147240293        2.05855585468831
C           14.79029224103789        1.35292850945021        2.98066565579266
C           14.28471363008134        2.63479950238425        3.12296483638369
C           13.22521296568492        3.04228105953425        2.32906965296820
C           12.67674774152817        2.18221319183637        1.39797905311932
C           10.34810123602042        0.22429734937088        1.12950819196515
C            8.98902859651053        0.23713246556532        0.89368389463169
C            6.38406968215213       -1.14405788056759       -1.02634020505064
C            7.08575736471657       -2.37014994929186       -1.16754446641258
C            6.44644917505419       -3.51086600013746       -1.54434224895216
C            5.05955561165554       -3.50191599728893       -1.79456390623326
C            4.34561336162748       -2.35274724180798       -1.65235611876982
C            4.97494995452735       -1.14031446918430       -1.26595441016828
C            2.32575514513971        0.15106407958587       -2.66327924078748
C            0.97480765511904        0.16873857018864       -2.94640766017494
C            0.03034667546382        0.07966681612353       -1.92273363284846
C           -1.37158532471285        0.09325472876685       -2.17822605396733
C           -2.27129763477222        0.00720418066751       -1.17197534526678
C           -1.85128923603928       -0.09887234845621        0.18731855844055
C           -0.46326070672287       -0.12577032683814        0.47105992235166
C            0.47825757252356       -0.03312880520509       -0.58359291900067
C           -4.86133909083213        1.08483870263318        0.76383304550766
C           -4.13222643075704        2.30276218494461        0.74241957519669
C           -4.75675789680581        3.49336171959178        0.53492289499928
C           -6.15324033939154        3.53971162669243        0.35168598358833
C           -6.88813683190001        2.39450286454908        0.36888737021619
C           -6.27532176515702        1.12817401429198        0.55975482844921
C           -9.01770516882476        0.34795918612598       -0.85613057989255
C          -10.38273088480352        0.37982883759449       -1.05320195983830
C          -12.68695528296375        2.38280232737214       -1.01029426164550
C          -13.24762635589159        3.35898253408415       -1.81041406442707
H          -14.77383089072200        3.83355028065554       -3.23728016029278
H          -15.70347666016592        1.54542013262252       -3.24742860154791
H          -14.70244345965015       -0.20348247683780       -1.84025531299559
H          -15.05060421492634        0.51046014426091        0.80966918045311
H          -16.48317647415789       -1.17504210379462        1.88109658880035
H          -15.70369533714388       -3.50765819015325        2.10692648742633
H          -13.47905300054000       -4.14077085075749        1.24082281653897
H          -12.05193360229848       -2.46232482178228        0.15146356224596
H          -11.38604553968871       -0.54060094782707        2.04165451944118
H           -8.95188241906350       -0.61601016898749        2.37594548609613
H           -8.15994640171480       -2.49416127023067        0.60705321802091
H           -7.02231849569470       -4.62940506806254        0.99118896958508
H           -4.58709345224803       -4.69327899384023        1.38267243775590
H           -3.27918008580130       -2.61606563137163        1.37551454333595
H           -3.03107140809238       -0.37567808319213        3.35343810500652
H           -0.62168361782601       -0.42914479272818        3.85579606946543
H            1.71545344135109       -0.36633551169309        3.08938555706196
H            3.34723025469978       -0.20210964226307        1.26288104418364
H            3.09497900058424        2.42413537250564       -0.69066418454806
H            4.23254455491818        4.49278006591382       -0.01872393060393
H            6.67518548689273        4.51051125467369        0.32944397499821
H            7.98351029197023        2.46015489727977        0.03803552039855
H            9.00364433578912       -0.31210360444474       -2.43480610949802
H           11.42813355500428       -0.31587050158994       -2.02858127395013
H           15.07063339374688        0.50937496764809       -0.57264085036303
H           16.51312730188357       -1.05584277447249       -1.80172615743806
H           15.71006205260893       -3.32948471318545       -2.33590552699504
H           13.45129695745536       -4.02610125123801       -1.61990164618972
H           12.01359043917714       -2.47016942703119       -0.37387801043760
H           14.63274295363350       -0.51992236952483        1.95707999177459
H           15.61262841667066        1.02423595945980        3.59912449697322
H           14.71321298327159        3.31102957788053        3.84699110922771
H           12.82770448900546        4.04170829079625        2.42894451774851
H           11.85790911027626        2.50661839720215        0.77247278648873
H           10.72594700380221        0.36606546392014        2.13150199105348
H            8.30343925258377        0.38558196492494        1.71559202052334
H            8.14566538699288       -2.38409748653109       -0.96161615549859
H            6.99599758863607       -4.43522906634080       -1.64735702054227
H            4.56876705246426       -4.41778310786988       -2.08974611240938
H            3.27958511874473       -2.34469285756752       -1.82693149381501
H            3.04743563397579        0.22328294395796       -3.46483392812467
H            0.63793615350297        0.25348715065197       -3.96974090324780
H           -1.69999481376299        0.17306235775141       -3.20499745159288
H           -3.33170327575288        0.01544587597774       -1.37840385327143
H           -3.06400132301699        2.26564545147592        0.89778014646373
H           -4.18961922268504        4.41252953938064        0.51895617230454
H           -6.63561957996414        4.49503637032154        0.20431123641150
H           -7.95979331474258        2.43438719208054        0.24250233710751
H           -8.35219413095434        0.59096716189656       -1.67200500277064
H          -10.78496096721958        0.65044714146128       -2.01852093403491
H          -11.84542740654171        2.61648040853472       -0.37451609063209
H          -12.83670960613794        4.35789612622748       -1.79764539473860
