134
 energy: -203.739470806227 gnorm: 0.000059373306 xtb: 6.7.1 (edcfbbe)
C          -14.33617412116671        2.75421045578987       -2.86294357906778
C          -14.85754687383724        1.47593479123397       -2.74788186767651
C          -14.29844854339457        0.56782206605089       -1.87019935788136
C          -13.20654476376438        0.93228119911420       -1.08263037108649
N          -12.63922619929680        0.01788513353809       -0.18829394385901
C          -13.45553894086719       -0.87674388553087        0.51254032152335
C          -14.71170230002575       -0.47947046966329        0.97026396862287
C          -15.51469000003861       -1.36786171780555        1.65842592639744
C          -15.07950557048469       -2.65880834676270        1.90964415063901
C          -13.83097007121899       -3.05730044431484        1.46105933825903
C          -13.02419425157778       -2.17907259622790        0.76443343773713
C          -11.25466045936465       -0.00025401370902        0.00760971522371
C          -10.72013125202325       -0.24255851898637        1.27324925801903
C           -9.35383566683302       -0.26594721253662        1.46149524194732
C           -8.48180964963371       -0.03469900060563        0.40083272357640
C           -7.02056582099993       -0.05112809849448        0.61072495371713
C           -6.37631986362525       -1.25184776163546        0.94419014115236
C           -7.08332873286635       -2.47852205038026        1.04904220219512
C           -6.44457457919831       -3.63725524138062        1.36708642028399
C           -5.05300955642669       -3.64618360079137        1.58959137119895
C           -4.33459020556397       -2.49604632590386        1.48121088752090
C           -4.96327125306584       -1.26460724595331        1.15911324361008
C           -4.22730377344081       -0.08023128331756        1.02669502304839
C           -2.76872558997265       -0.08927474695213        1.27581422936134
C           -2.30464266353608       -0.10542196876973        2.58628258156455
C           -0.95320902307682       -0.09320369169172        2.86605649770899
C           -0.01207243603353       -0.06601942995783        1.83580303560731
C            1.39017069306032       -0.04074148821170        2.08801281378047
C            2.28693526036141       -0.01574570455037        1.07580712640289
C            1.86307668186399       -0.01858216397057       -0.28634505488407
C            2.77892569980071        0.00332484221909       -1.34988970536076
C            4.23711619538615        0.01044254632122       -1.09617150950243
C            4.95193000061860        1.21165422165242       -1.18321285370191
C            4.30368642005538        2.44072989161415       -1.47398021042330
C            5.00180423543783        3.60654197810031       -1.53844728530485
C            6.39115744797604        3.61588176322681       -1.30193653642587
C            7.04830657416462        2.45963974657884       -1.01377492167374
C            6.36276082089649        1.21781035003743       -0.95391936929270
C            7.02546792872588        0.01916859581001       -0.65160501797214
C            8.48394167756943        0.02443853437707       -0.41808153393887
C            9.36991448239306        0.28515174163313       -1.45978957777073
C           10.73265807945249        0.29449213463013       -1.24478687125355
C           11.24889030848803        0.03896052321110        0.02579461483547
N           12.62979466743136        0.04708457941916        0.24770224080970
C           13.49794917760788       -0.45421360946307       -0.72856717175092
C           14.73334816659885        0.15213077859928       -0.95557248367649
C           15.58923762429620       -0.35003818672206       -1.91621571612860
C           15.22800521150677       -1.45416745348635       -2.67083834476854
C           13.99992292671781       -2.05691686866816       -2.45327746532470
C           13.14075849705948       -1.56770879526952       -1.48888821331446
C           13.14201324320192        0.55522728631427        1.44675459787237
C           14.24880700031711       -0.03964861657608        2.05215348976267
C           14.75372066131630        0.46913935659623        3.23273776689913
C           14.16271918839965        1.56861910589243        3.83349271798229
C           13.06011114212799        2.16014606586313        3.23920025300484
C           12.55309551068555        1.66422301810885        2.05406119213973
C           10.36362488975648       -0.22457476665367        1.07123621277862
C            9.00203127166938       -0.22951440014933        0.84890097279675
C            6.30884490142107       -1.18380802170247       -0.56825919895428
C            6.94941213981174       -2.42113170783510       -0.29566514334058
C            6.24160103557255       -3.58087396421845       -0.21915355369928
C            4.84647007676939       -3.57922810835065       -0.41870454553141
C            4.19601432502109       -2.41832197038187       -0.70129910069285
C            4.89667807583722       -1.18673296397461       -0.78844321415116
C            2.31566986412582        0.01590691765959       -2.66041914899366
C            0.96418003140244       -0.00270527891234       -2.94041335442467
C            0.02286103269098       -0.03116381818070       -1.91037663942338
C           -1.37941491420975       -0.05815298809398       -2.16254444407572
C           -2.27628885487632       -0.08025386201181       -1.15035172141044
C           -1.85286254658336       -0.07408970679951        0.21200528335680
C           -0.46414318292027       -0.05973893879200        0.49332985824058
C            0.47449215374882       -0.03646158172642       -0.56775523488014
C           -4.86799772953548        1.11829150976248        0.68450193369416
C           -4.14646124491771        2.33373268306131        0.55197297877348
C           -4.77818017624825        3.49668828894067        0.23712779440091
C           -6.17486011815095        3.51783400589845        0.05117032742290
C           -6.90274034437126        2.37454771580695        0.17337039981663
C           -6.28225940706781        1.13463310489990        0.47864265414712
C           -9.01860138980887        0.21324001256641       -0.85979960280222
C          -10.38364323005247        0.22381213393575       -1.05884248474497
C          -12.68813420089576        2.22189474612442       -1.19963854029439
C          -13.24885298579445        3.11994895529763       -2.08652811900711
H          -14.77401176666772        3.45997953719058       -3.55236701170014
H          -15.70180233432556        1.17978777764966       -3.35310245341147
H          -14.70094233239223       -0.43142606156302       -1.78987094473181
H          -15.04952907888017        0.52969750486670        0.78478263385430
H          -16.48445661711379       -1.04629005197602        2.00900636782495
H          -15.70864072428220       -3.34901306172678        2.45086640108550
H          -13.48525876068890       -4.06361571456631        1.64720767673348
H          -12.05562354625500       -2.49615758770090        0.40622300266875
H          -11.38533804900077       -0.40861083759084        2.10796395635626
H           -8.95100793476609       -0.44745268421606        2.44757376888101
H           -8.14694975953063       -2.47763471285999        0.86257935515626
H           -6.99795480460215       -4.56192709325903        1.44324776681744
H           -4.56215112913498       -4.57630978718572        1.83610879000644
H           -3.26520056282683       -2.50226781638454        1.63357240722744
H           -3.02379630330634       -0.12120371255193        3.39321648031102
H           -0.61319463932804       -0.10109890665206        3.89182155398898
H            1.72121303972216       -0.03946158245162        3.11703441629597
H            3.34764847557459        0.00764461713499        1.27943504503297
H            3.23614993044616        2.43167742823104       -1.63890037878840
H            4.49652967512993        4.53486959892776       -1.76148148835012
H            6.92815607159756        4.55230646158678       -1.34427546207296
H            8.11030400269672        2.47169658041665       -0.81837456926281
H            8.98102419319774        0.48303857641930       -2.44833936121730
H           11.40869276613970        0.50380549679650       -2.06088349074631
H           15.01360847932244        1.01934860753430       -0.37561407267616
H           16.54231080757914        0.13034084835960       -2.08253903932500
H           15.89842199362254       -1.84178458922689       -3.42277649130617
H           13.71132152589389       -2.92132756796145       -3.03321278838742
H           12.18816019448665       -2.04650543540722       -1.31489271127520
H           14.70572767878942       -0.90324880172356        1.59131140679171
H           15.61035836872356       -0.00247827027754        3.69156144094416
H           14.55839774162434        1.96133742811402        4.75779416334352
H           12.59547560374879        3.02099368150276        3.69733073663136
H           11.69928441534715        2.13416340260859        1.58808238107242
H           10.75234911780652       -0.42825738420150        2.05829128590278
H            8.32557494203590       -0.43304174843608        1.66660334055719
H            8.02004155770766       -2.42666687192800       -0.15455592510359
H            6.74458447107919       -4.51394192415916       -0.01071092505602
H            4.30116975882027       -4.50941553280708       -0.35409000866219
H            3.12879297224668       -2.41581497612125       -0.86792041574003
H            3.03496180024580        0.03565592183054       -3.46712434847505
H            0.62437533521119        0.00303103091512       -3.96626500666731
H           -1.71047331376653       -0.06228909140099       -3.19155395419172
H           -3.33690327912864       -0.10420726159437       -1.35431265230743
H           -3.07812621211501        2.31805723376911        0.70988654264605
H           -4.21647631163465        4.41391031316901        0.13732983498799
H           -6.66304026312232        4.45285160532222       -0.18221762352403
H           -7.97466806427057        2.39632326867693        0.04495537616578
H           -8.35355419583307        0.38132318098473       -1.69470827474563
H          -10.78632496380511        0.40319224388593       -2.04501612144034
H          -11.84740734266023        2.51368510531663       -0.58724111952720
H          -12.83887546408302        4.11623345062453       -2.16514038220031
