71
 energy: -105.230689605545 gnorm: 0.000034640780 xtb: 6.7.1 (edcfbbe)
C           -8.48705492162753        3.07418011888640       -0.30954859707278
C           -7.24609266288348        2.51781484304028       -0.99571193706262
C           -6.19799638188889        3.60333608428114       -1.22491084519930
C           -4.96971443819524        3.08228527146587       -1.98583519201991
C           -4.24778243344081        2.02933522993047       -1.21828448666184
C           -3.43335202479168        2.18984084911434       -0.13459687951501
C           -2.96277338179747        0.96809192775339        0.37356234436091
C           -3.42185211318911       -0.12445807981030       -0.34288322974311
S           -4.44676018186737        0.34932268601224       -1.63753454954213
C           -2.96866511524244       -1.38825826244766        0.13458949018012
S           -3.15848643916219       -3.00128969038646       -0.42805425973021
C           -2.14465802503777       -3.59799098413843        0.85977528412091
C           -1.77928884874287       -5.03978693440945        0.90763052188963
C           -0.65520452625039       -5.35938629721711       -0.09091947822610
C            0.64484675791696       -4.63162962736959        0.24250351180664
C            1.74782337954080       -4.95855372859432       -0.75648868270717
C           -1.70862614683631       -2.59130110782791        1.67077105903378
C           -2.18300445968561       -1.33068407231327        1.27177832724870
P           -1.86193789937713        0.40673869973930        1.70837793053874
O           -2.10666296461643        0.87491230988869        3.07383073969812
C           -0.16012275142585        0.63863474850501        1.11894552001240
C            0.78213700815953        1.11700775606131        2.01745663582480
C            2.11002763757412        1.20747353511582        1.64850612768761
C            2.50236005176223        0.82087717131811        0.36821466370075
N            3.84659230975999        0.87532484523204       -0.00740266818889
C            4.55224824143901       -0.14792785444158       -0.61475225391532
C            4.14308490689821       -1.43288161690487       -0.94105313452166
C            5.07009814383834       -2.27737001729504       -1.52203458897601
C            6.37793332464629       -1.86491742665011       -1.76555017855328
C            6.79848751724924       -0.59712071373810       -1.41663162346075
C            5.88458704809665        0.26973104930864       -0.83232993758556
C            5.97885887642157        1.61403472495122       -0.33432677671952
C            7.00963251138561        2.54313966838890       -0.28753921816853
C            6.75326432264170        3.78845837885260        0.25034654793025
C            5.48452009981586        4.11705429596339        0.72190208224091
C            4.44298559328253        3.20938457019195        0.68552478711293
C            4.70185166837329        1.94746470378708        0.17092858032283
C            1.54643270847964        0.36290184156853       -0.54032120497323
C            0.22436499149153        0.26538589122224       -0.16333166870758
H           -9.22069860155912        2.28749814287411       -0.15137908882166
H           -8.94385286453029        3.85299049679280       -0.91670263841994
H           -8.22817588880223        3.50111855186488        0.65685965508274
H           -7.52660959249392        2.07705101227609       -1.95547847875393
H           -6.81943336426065        1.72507749402450       -0.37778002209383
H           -5.87780174824366        4.00650216873673       -0.26201466683194
H           -6.64195948051516        4.41862359290211       -1.80023924666464
H           -5.28765094673001        2.67671292940197       -2.94836758826927
H           -4.28903973445519        3.91718403330232       -2.17257031336559
H           -3.18407423615271        3.14863264173255        0.28439466418603
H           -1.44970063150355       -5.28951430467371        1.91834130582327
H           -2.65147273997283       -5.65146828556117        0.66675955217486
H           -0.47766362448655       -6.43668393644672       -0.08479465895706
H           -0.98247965254520       -5.07920096134909       -1.09499140081452
H            0.46798736474520       -3.55330687512217        0.24674497495033
H            0.96890377365227       -4.91647877862334        1.24623282121330
H            1.94280341802954       -6.02875173098079       -0.77413520723024
H            2.66896948984614       -4.44728309298179       -0.48649704432791
H            1.46075006345897       -4.64690095881326       -1.75865541802748
H           -1.07714873518791       -2.74946472508394        2.52707098398067
H            0.45665123784566        1.39836360096567        3.00858263284179
H            2.85283109104270        1.54863234434134        2.35384904227133
H            3.13798141030062       -1.77092958551772       -0.73819746146103
H            4.77430085062975       -3.28084972290133       -1.79121975479226
H            7.07152701388446       -2.55364999025988       -2.22427530559929
H            7.81693318248751       -0.28296024743835       -1.58771280732778
H            7.98788991064518        2.29344925354617       -0.66958437311672
H            7.54140273309478        4.52486411665050        0.29917053791621
H            5.30902811278421        5.10474573027108        1.12184953247182
H            3.45894317999827        3.48217394233334        1.03564423050504
H            1.85103808006422        0.09464067081549       -1.54086259291696
H           -0.51576086836181       -0.09644326991587       -0.86284696534492
