71
 energy: -105.161711730507 gnorm: 0.000141118751 xtb: 6.7.1 (edcfbbe)
C           -8.49221301669171        3.02305638057729       -0.25937517146009
C           -7.25734483673536        2.49382908934159       -0.97719094282512
C           -6.21321596429282        3.58910943778019       -1.17423501152290
C           -4.99194460540749        3.09416585974901       -1.96868596515137
C           -4.26703661674749        2.01690003168385       -1.25105411706703
C           -3.45620674173269        2.15191793863569       -0.13323937445369
C           -2.94839933504527        0.96013926206605        0.33005751167127
C           -3.40299006241688       -0.17479030741746       -0.45318356431224
S           -4.42483834927979        0.34507350573851       -1.76805963017420
C           -2.98653803612854       -1.38214979823860        0.00991259772916
S           -3.18557438781411       -3.03267013065900       -0.51758290105032
C           -2.20816787233042       -3.59715802041786        0.83202169896992
C           -1.82346536622353       -5.02604329598600        0.91394764604262
C           -0.68279906421546       -5.35228157480640       -0.06819391129630
C            0.60253676035416       -4.59872106088528        0.26428161460231
C            1.72013817161561       -4.93171610322143       -0.71626041661598
C           -1.77479955814076       -2.55855596743676        1.64249864700787
C           -2.18312413109972       -1.31585564037155        1.21642159447087
P           -1.85286956357884        0.40570846465718        1.65418561305441
O           -2.08939483350270        0.87311006991425        3.02350036497123
C           -0.13957708416749        0.65089300908968        1.08880521923015
C            0.79867355613198        1.13029307010197        1.99163762973510
C            2.12879649484472        1.21730164778779        1.63119946550310
C            2.52900616685652        0.82524637101744        0.35468744214385
N            3.87575242280461        0.87778302720990       -0.01214178514769
C            4.58519854880225       -0.14769728546363       -0.61075799126528
C            4.17810992214105       -1.43427734908661       -0.93335154251505
C            5.10873400213268       -2.28158772600947       -1.50439799302209
C            6.41792446020123       -1.86996110193705       -1.74188367201325
C            6.83626010442672       -0.60022663867463       -1.39666611933473
C            5.91881309706396        0.26926636191985       -0.82220235473416
C            6.00952564125838        1.61609068851829       -0.32988280995241
C            7.03912284093552        2.54625590041563       -0.28167069271917
C            6.77848892886063        3.79406298977098        0.24879158096632
C            5.50683293216152        4.12393623289059        0.71146398640294
C            4.46625688532498        3.21520857450347        0.67338898763361
C            4.72929649287008        1.95102383948489        0.16637409637856
C            1.57910664487352        0.36385807212600       -0.55824182958439
C            0.25462489597105        0.27044137929228       -0.18900168969247
H           -9.22391154774768        2.23025707321784       -0.12506717335872
H           -8.95477385595774        3.82386030653213       -0.83267788607195
H           -8.22536665697158        3.41322565576807        0.72034319517437
H           -7.54603605307796        2.08930675074620       -1.95020679276232
H           -6.82312621454457        1.67871709923154       -0.39466354894981
H           -5.88318937477340        3.95566150696096       -0.20012105267205
H           -6.66121845530986        4.42544431924211       -1.71506026998495
H           -5.32119506796039        2.72674456904287       -2.94250682948314
H           -4.31445177409162        3.93853955242003       -2.12742175298190
H           -3.24743223667385        3.10920159864276        0.31295314878365
H           -1.50140456151697       -5.25386632146299        1.93241238023943
H           -2.68341245840713       -5.65426769840195        0.66893515566004
H           -0.49199906267513       -6.42673818669102       -0.03653510395075
H           -1.00507199776872       -5.09707745227343       -1.08015888639649
H            0.41051277552035       -3.52300001009482        0.24301018906036
H            0.92038313347338       -4.85707017290073        1.27725527284620
H            1.92915279131327       -5.99938361895051       -0.70972599157839
H            2.63176571083720       -4.40304051066251       -0.44741836257341
H            1.43941082359497       -4.64442119545880       -1.72738424573614
H           -1.16868660795769       -2.72622264441540        2.51631856921603
H            0.46690043648344        1.41613110880133        2.97919661657622
H            2.86803755217161        1.55953074292215        2.33990781958030
H            3.17157373780199       -1.77084610070279       -0.73525202465115
H            4.81473741605336       -3.28648361778427       -1.77021258637766
H            7.11448539170968       -2.56072049511094       -2.19296473229118
H            7.85568663524585       -0.28685536496993       -1.56323382931362
H            8.01980069197018        2.29579362546618       -0.65691238433988
H            7.56574113693176        4.53134174684554        0.29849708160967
H            5.32820860095343        5.11341161787900        1.10551887790218
H            3.47987049102459        3.48863278865301        1.01627868112779
H            1.89013557079354        0.09077635889742       -1.55557512208273
H           -0.48135563396359       -0.09404517861416       -0.89165205041652
