71
 energy: -105.162151508791 gnorm: 0.000126003201 xtb: 6.7.1 (edcfbbe)
C            1.61782287229583        4.95610582836302       -0.88891665522670
C            0.51714589684249        4.62702314661422        0.11179997514652
C           -0.77946212898824        5.36420339539687       -0.21360975877691
C           -1.90192791210995        5.04514298567692        0.79146501207026
C           -2.26914370996115        3.61008352334421        0.74494933338537
C           -1.81572393740841        2.59564683542970        1.57483019624040
C           -2.20897249955518        1.33825975124820        1.17855146624307
C           -3.02146932992361        1.36701231480486       -0.02324333459739
S           -3.24807281405944        3.00267442147445       -0.58466591803881
C           -3.42309720447156        0.14411530583434       -0.45787216159283
S           -4.44896352600192       -0.41573905802593       -1.75159628826365
C           -4.26383819260187       -2.07639288442246       -1.19941614166200
C           -4.98353389038512       -3.16522471394296       -1.90227839849517
C           -6.50689602640658       -3.03868910281616       -1.74048546393902
C           -6.94129548333076       -3.16987786727480       -0.28338014897429
C           -8.45220702920894       -3.04459579908549       -0.13714093947700
C           -3.44306742159374       -2.17550629187916       -0.08690108946513
C           -2.94709029849877       -0.96653017536393        0.34645848970328
P           -1.85759171059115       -0.36867108518560        1.65608119240211
O           -2.09149706332573       -0.80862422828517        3.03497565700628
C           -0.14066521136348       -0.61056272681413        1.10063027623183
C            0.26601717967866       -0.20905304254268       -0.16674906577519
C            1.59253204238266       -0.30590794600496       -0.52798186247469
C            2.53127301817927       -0.79479624559925        0.38212341366169
N            3.88064117866734       -0.85087222696818        0.02522882053241
C            4.60560202137808        0.18360582513234       -0.53818226215690
C            4.21236112452178        1.48081699478668       -0.83419937089787
C            5.15702885487001        2.33477992161560       -1.37125666644006
C            6.46635515791922        1.91925841560562       -1.60093068329428
C            6.87047828052069        0.63805198886082       -1.28224544931723
C            5.93874248271413       -0.23845540580206       -0.74253636948308
C            6.01267616787091       -1.59795111931075       -0.28333176336037
C            7.03421399848333       -2.53743449566220       -0.24563873987787
C            6.75678012328762       -3.79618536841944        0.24926666498146
C            5.47669348070897       -4.12724374208870        0.68719806849191
C            4.44395083894881       -3.20926103263051        0.65927676785989
C            4.72355064915774       -1.93490391842086        0.18784398370589
C            2.11805525185891       -1.21006516540968        1.64708514831950
C            0.78635397355778       -1.11735565462215        1.99999903171634
H            1.32472948477922        4.65480968925127       -1.89238548620993
H            2.53686973520194        4.43682824728468       -0.62741112960127
H            1.81952629531253        6.02514277629525       -0.89795966912637
H            0.84644676848801        4.90242159621750        1.11660126659573
H            0.33475719791738        3.54942274305313        0.10827269856809
H           -1.11503092624502        5.08858750536447       -1.21585503440448
H           -0.59757116706442        6.44062263065371       -0.20354223387553
H           -1.56860749593023        5.29827375489367        1.80026055237745
H           -2.77302341043374        5.65753481377199        0.54564123806625
H           -1.20598517271196        2.79078108737085        2.44036742997517
H           -4.74568865540117       -3.13064353979516       -2.96999522827480
H           -4.65013028973407       -4.12607301123360       -1.50441480983810
H           -6.82446291916328       -2.06890230704043       -2.13004411590350
H           -6.98945041868775       -3.81562581410139       -2.33688794730980
H           -6.61664326914646       -4.13804542764960        0.10525124738770
H           -6.45285666752153       -2.39495766684071        0.31177500654297
H           -8.74342571000841       -3.14061820041210        0.90589663646038
H           -8.95764810287221       -3.82078836007100       -0.70807444306205
H           -8.79084681318366       -2.07683985876674       -0.50051815946175
H           -3.22218608210106       -3.11890441042564        0.38219264343525
H           -0.46175030162598        0.17555419922011       -0.86728014822822
H            1.91372503185809       -0.01424877619933       -1.51681761938579
H            3.20559404303811        1.81979230102105       -0.64121363071363
H            4.87461057427790        3.34834982438208       -1.61592408553384
H            7.17425464515311        2.61592404013850       -2.02441666730523
H            7.88981364430404        0.32114055248273       -1.44250544545865
H            8.02165083461792       -2.28556028715153       -0.60171055596765
H            7.53743645582689       -4.54098719745926        0.29001844177903
H            5.28519919695059       -5.12495696898739        1.05345945985022
H            3.45108390798373       -3.48286348572928        0.98283826822091
H            2.84893419667463       -1.57423073529249        2.35354358919277
H            0.44497396474012       -1.41823429487948        2.97978006676458
