  71
       -105.15667132
 C          1.4495726137        4.8979657746       -1.1373640266
 C          0.4676865756        4.5531429456       -0.0248359869
 C         -0.8402170169        5.3272292784       -0.1695437608
 C         -1.8524231885        4.9745148621        0.9360811270
 C         -2.2244825137        3.5415433864        0.8810850461
 C         -1.7521483697        2.5162887631        1.6861502840
 C         -2.1593081957        1.2639108738        1.2853594228
 C         -2.9978443548        1.3105097265        0.1042117481
 S         -3.2386240532        2.9545318894       -0.4279405616
 C         -3.4060016784        0.0932040261       -0.3430861717
 S         -4.4628570534       -0.4460674847       -1.6209723605
 C         -4.2752540635       -2.1120706015       -1.0930593027
 C         -5.0048046639       -3.1916650395       -1.7995602841
 C         -6.5259709177       -2.9825213936       -1.7560389330
 C         -7.0683339845       -3.0243378639       -0.3300518370
 C         -8.5759480328       -2.8102757643       -0.3000044488
 C         -3.4278785902       -2.2293607303       -0.0029130135
 C         -2.9151534420       -1.0278180782        0.4342580382
 P         -1.7985927341       -0.4494082356        1.7272455338
 O         -1.9981539806       -0.9171702457        3.1027712517
 C         -0.0887348622       -0.6755788269        1.1374794395
 C          0.3115406254       -0.1925186336       -0.1032485357
 C          1.6351359745       -0.2704256683       -0.4794588696
 C          2.5769676319       -0.8259861609        0.3881397416
 N          3.9247961359       -0.8563504467        0.0202627329
 C          4.6465986172        0.2209027261       -0.4601011823
 C          4.2518993702        1.5385289788       -0.6426905136
 C          5.1937536872        2.4345871761       -1.1116940240
 C          6.5008330820        2.0393960611       -1.3856807974
 C          6.9064466582        0.7357102696       -1.1790152142
 C          5.9782387925       -0.1826470260       -0.7074799075
 C          6.0546647733       -1.5750375511       -0.3606070686
 C          7.0764920040       -2.5137245211       -0.4034100865
 C          6.8023000287       -3.8078532935       -0.0072032724
 C          5.5252089407       -4.1733023695        0.4117457775
 C          4.4919426748       -3.2567819622        0.4624196612
 C          4.7683219854       -1.9491842802        0.0903368572
 C          2.1697201508       -1.3287723530        1.6226391925
 C          0.8412523305       -1.2507367331        1.9915359457
 H          1.0260287960        4.6532607406       -2.1091649026
 H          2.3749300418        4.3398576463       -1.0158739376
 H          1.6852222886        5.9600143061       -1.1243909721
 H          0.9189430645        4.7821374966        0.9436352825
 H          0.2589841692        3.4804904692       -0.0453497234
 H         -1.2888525369        5.1053168429       -1.1404185418
 H         -0.6360764877        6.3989019430       -0.1294904730
 H         -1.4174114428        5.1940298916        1.9134374099
 H         -2.7423277324        5.5952406249        0.8013228073
 H         -1.1185955718        2.6995715123        2.5370379498
 H         -4.6912352469       -3.2181545593       -2.8486963928
 H         -4.7490620080       -4.1496129318       -1.3415328886
 H         -6.7631789461       -2.0165655483       -2.2076872959
 H         -7.0065427331       -3.7603648636       -2.3528888364
 H         -6.8273111503       -3.9898411420        0.1210723218
 H         -6.5788770445       -2.2506470934        0.2659061280
 H         -8.9448452714       -2.8393368567        0.7223369289
 H         -9.0837054073       -3.5850516981       -0.8710183729
 H         -8.8318879347       -1.8443793239       -0.7301351803
 H         -3.2012840284       -3.1794603855        0.4496485925
 H         -0.4187246614        0.2431645389       -0.7704922053
 H          1.9522320053        0.0893054017       -1.4470635091
 H          3.2468219601        1.8593321012       -0.4128482181
 H          4.9120814484        3.4659736143       -1.2661393536
 H          7.2059337144        2.7690183417       -1.7548172052
 H          7.9243480642        0.4335129157       -1.3731121376
 H          8.0617268847       -2.2340418037       -0.7445130992
 H          7.5835145428       -4.5528233167       -0.0300159179
 H          5.3367437970       -5.1967126465        0.7003667265
 H          3.5013242263       -3.5548231166        0.7709414843
 H          2.9030055227       -1.7466464716        2.2962121247
 H          0.5055059199       -1.6134251816        2.9521304916
