  34
  -66.9314453996000       0.331382670222723      !
 O         -0.7709390234       -2.2218751238        0.3485593446
 C         -1.4267866397       -1.2173505905        0.1939630297
 C         -2.8943348431       -1.1952775187        0.1948138924
 C         -3.5888984225       -2.3729090167        0.3842725591
 C         -4.9862603070       -2.3736274880        0.4025806345
 C         -5.6833669035       -1.2048988787        0.2360748895
 C         -5.0088073609        0.0184242925        0.0401862255
 C         -5.6884921136        1.2417045460       -0.1373816009
 C         -4.9957038114        2.4083092818       -0.3332104648
 C         -3.5983457274        2.4054923521       -0.3630705597
 C         -2.8982481972        1.2288284101       -0.1888476671
 C         -3.5907986063        0.0180955115        0.0179665164
 C         -1.4293911648        1.2527086040       -0.2397623703
 O         -0.7841004246        2.2361344234       -0.5044989540
 N         -0.7975164981        0.0212417682        0.0146235042
 C          0.5984896410        0.0320147988        0.0640027424
 N          1.2730646241        0.8196043777        0.8055126540
 C          2.6122344384        0.6507572143        0.6315572046
 C          3.6171412455        1.3567708362        1.2869365316
 C          4.9335151049        1.0673394846        1.0045536205
 C          5.2537035132        0.0771434735        0.0743591746
 Cl         6.9157990077       -0.2562337521       -0.2522561761
 C          4.2815570226       -0.6438354933       -0.5934373678
 C          2.9588869883       -0.3478394481       -0.3092395890
 S          1.5229702603       -1.0667807136       -0.9633259648
 H         -3.0319070489       -3.2880467344        0.5172219006
 H         -5.5127724996       -3.3042240716        0.5501897783
 H         -6.7635984696       -1.2041290709        0.2515292240
 H         -6.7686823224        1.2416291911       -0.1187358493
 H         -5.5256379158        3.3387203999       -0.4692293315
 H         -3.0449529905        3.3186239877       -0.5217795476
 H          3.3484332770        2.1186068891        1.9999214128
 H          5.7285087391        1.6023486144        1.4991673207
 H          4.5436121077       -1.4060033603       -1.3089488658
  34
  -66.9312233254000       0.261982062619570      !
 O         -0.7415737735       -2.1964514043        0.4742071184
 C         -1.4146795584       -1.2125520068        0.2714216218
 C         -2.8828482303       -1.1995018562        0.2871141242
 C         -3.5685369024       -2.3644814016        0.5644104863
 C         -4.9656602497       -2.3709879872        0.5985364250
 C         -5.6708124936       -1.2205375481        0.3565749444
 C         -5.0053634922       -0.0105813318        0.0678206729
 C         -5.6954523716        1.1924670966       -0.1899158337
 C         -5.0135030659        2.3479799369       -0.4708404419
 C         -3.6163574485        2.3539892295       -0.5064255065
 C         -2.9065694813        1.1972670680       -0.2563831735
 C         -3.5875347115       -0.0036710016        0.0341603208
 C         -1.4382139051        1.2284301434       -0.3015798963
 O         -0.7888193020        2.2019649941       -0.5989628007
 N         -0.8047242464        0.0182499920        0.0095923436
 C          0.5959537708        0.0385991988        0.0504624622
 N          1.2686388126        0.6084879455        0.9687939707
 C          2.6086246903        0.4877538626        0.7593452010
 C          3.6130644211        0.9956494240        1.5783341445
 C          4.9294519265        0.7845909283        1.2341524887
 C          5.2503754046        0.0703880062        0.0785154211
 Cl         6.9121368217       -0.1712410214       -0.3192699639
 C          4.2785912742       -0.4483638000       -0.7565479030
 C          2.9557882408       -0.2340608637       -0.4069058099
 S          1.5197852719       -0.7503112385       -1.2295557855
 H         -3.0046439486       -3.2647937211        0.7559436143
 H         -5.4852339867       -3.2912183088        0.8181090388
 H         -6.7507820626       -1.2238280311        0.3830560632
 H         -6.7753898356        1.1860676697       -0.1623185182
 H         -5.5516958354        3.2626797618       -0.6674047734
 H         -3.0707062654        3.2587606215       -0.7277960012
 H          3.3442965110        1.5450690970        2.4653933135
 H          5.7240072390        1.1691369170        1.8535037909
 H          4.5410594877       -0.9981554113       -1.6454572336
  34
  -66.9311943019000       0.254058236973464      !
 O         -0.7843328470       -2.2060067479       -0.2043447206
 C         -1.4265892356       -1.1772546142       -0.1340979451
 C         -2.8891642121       -1.1711557065       -0.0415700160
 C         -3.5703399159       -2.3690755737        0.0465642568
 C         -4.9631580069       -2.3803876449        0.1593696460
 C         -5.6696077266       -1.2052190804        0.1816580192
 C         -5.0089887936        0.0375246119        0.0869217436
 C         -5.6938225631        1.2705321378        0.0921113094
 C         -5.0090588577        2.4533012131       -0.0189792027
 C         -3.6166037571        2.4590266291       -0.1398720462
 C         -2.9104076237        1.2724898960       -0.1395085316
 C         -3.5958794468        0.0475204811       -0.0251124719
 C         -1.4457013848        1.3124087982       -0.2730788520
 O         -0.8381351973        2.3221593412       -0.5092924291
 N         -0.7853492901        0.0631313056       -0.1212353830
 C          0.6043912162        0.0667240457       -0.0427865837
 N          1.2886743724        1.1054670036        0.2531788506
 C          2.6239106467        0.8499830727        0.2572081822
 C          3.6267264609        1.7745932849        0.5385054740
 C          4.9409278350        1.3658103457        0.5026438296
 C          5.2583158983        0.0426633518        0.1909234701
 Cl         6.9198253008       -0.4302818272        0.1561320378
 C          4.2864121979       -0.8983774946       -0.0900377953
 C          2.9651632435       -0.4845086818       -0.0581997215
 S          1.5233644128       -1.4152766983       -0.3344488995
 H         -3.0079865077       -3.2902783643        0.0302659018
 H         -5.4794605033       -3.3255750703        0.2296696448
 H         -6.7462644431       -1.2146685003        0.2687793762
 H         -6.7703924964        1.2657670142        0.1810588428
 H         -5.5427810011        3.3914378489       -0.0167372075
 H         -3.0722564799        3.3864659474       -0.2329148220
 H          3.3575227292        2.7904522401        0.7757507913
 H          5.7363342260        2.0625324478        0.7148102907
 H          4.5466552847       -1.9166821565       -0.3288748851
  34
  -66.9307124493000       0.152577030184244      !
 O         -0.7993342181       -2.4404539933        0.2486589341
 C         -1.4159647168       -1.4150038302        0.1387749892
 C         -2.8601663206       -1.3038965005        0.3903737297
 C         -3.5232292311       -2.3545816677        0.9920127958
 C         -4.8931422221       -2.2664544862        1.2557331772
 C         -5.5989900480       -1.1445222509        0.9047668227
 C         -4.9602810569       -0.0583944031        0.2705738963
 C         -5.6486576280        1.1057855153       -0.1307305606
 C         -4.9892503318        2.1310645609       -0.7586038145
 C         -3.6151417111        2.0485327511       -1.0006332249
 C         -2.9057174286        0.9306627991       -0.6093907870
 C         -3.5672138399       -0.1419388616        0.0226571668
 C         -1.4530316592        0.8910466242       -0.8034394904
 O         -0.8400549386        1.7727669235       -1.3700619834
 N         -0.7823494379       -0.2074800228       -0.2621725856
 C          0.6024837966       -0.1385285794       -0.1682013999
 N          1.2839686631       -0.8983082325        0.6033051824
 C          2.6102754629       -0.6036263073        0.5586430600
 C          3.6072098768       -1.2389898930        1.2948894247
 C          4.9091974662       -0.8112017638        1.1639905337
 C          5.2200969527        0.2432579135        0.3036971333
 Cl         6.8652137299        0.7563852903        0.1749973436
 C          4.2544846844        0.8910235964       -0.4429628330
 C          2.9453558804        0.4582847792       -0.3117155533
 S          1.5075883010        1.0829426991       -1.0647103476
 H         -2.9621541817       -3.2367911896        1.2603129129
 H         -5.3925372600       -3.0931938201        1.7374861849
 H         -6.6586408268       -1.0785037049        1.1042153126
 H         -6.7096078457        1.1727810726        0.0614137310
 H         -5.5274693911        3.0141075590       -1.0676446463
 H         -3.0882558960        2.8566196795       -1.4850206263
 H          3.3416586800       -2.0490598849        1.9538460977
 H          5.6991850710       -1.2841780970        1.7254988082
 H          4.5105154630        1.7042664416       -1.1023667763
