  34
  -67.1121470600000       0.258081887247236      !
 O         -0.7651889240       -2.2174085672       -0.1448644483
 C         -1.4165951582       -1.1937211819       -0.0857638044
 C         -2.8774613746       -1.1999497478        0.0306633363
 C         -3.5449612170       -2.4023258641        0.1552251003
 C         -4.9355778482       -2.4248482668        0.2911419128
 C         -5.6534258821       -1.2564305346        0.3002707922
 C         -5.0070397667       -0.0095839652        0.1685026497
 C         -5.7041386803        1.2165048979        0.1589639467
 C         -5.0332710287        2.4032817592        0.0117145148
 C         -3.6430921439        2.4200436834       -0.1321631181
 C         -2.9250147548        1.2407396129       -0.1184043891
 C         -3.5961097538        0.0118372516        0.0330506694
 C         -1.4631497965        1.2921223578       -0.2768643933
 O         -0.8697471031        2.3025156434       -0.5442748220
 N         -0.7878131642        0.0528646500       -0.1096030766
 C          0.6029106175        0.0717026223       -0.0541207311
 N          1.2813657850        1.1231352449        0.2085843023
 C          2.6190078765        0.8808538873        0.1960319538
 C          3.6168538919        1.8209858798        0.4412398946
 C          4.9343680668        1.4243944734        0.3923885271
 C          5.2600222919        0.0980886165        0.1034511076
 Cl         6.9254474460       -0.3592310672        0.0513085778
 C          4.2932544231       -0.8581603249       -0.1415830942
 C          2.9685771575       -0.4566387740       -0.0967451324
 S          1.5319727774       -1.4071091261       -0.3295552304
 H         -2.9736553004       -3.3181280353        0.1491008593
 H         -5.4410812950       -3.3733288588        0.3898356743
 H         -6.7283749879       -1.2745470695        0.4052723100
 H         -6.7790187534        1.2031110205        0.2656908120
 H         -5.5763505313        3.3359943102        0.0029594314
 H         -3.1097388414        3.3505719268       -0.2536787477
 H          3.3412746106        2.8389764508        0.6614140610
 H          5.7260255379        2.1332054199        0.5767064919
 H          4.5598735930       -1.8787173064       -0.3631494950
  34
  -67.1121422100000       0.256760740900947      !
 O         -0.7363602381       -2.3516257489        0.4903821827
 C         -1.3875599737       -1.3721233917        0.2432250720
 C         -2.8515203990       -1.4009404300        0.1001610154
 C         -3.5026300484       -2.6185320148        0.1189836430
 C         -4.8929821073       -2.6791024447       -0.0104339906
 C         -5.6301939999       -1.5313527452       -0.1504969048
 C         -5.0024633531       -0.2683782950       -0.1658351344
 C         -5.7183795427        0.9406149520       -0.2914946494
 C         -5.0665897038        2.1471862450       -0.2873188347
 C         -3.6758681569        2.2022362688       -0.1612000326
 C         -2.9413143663        1.0388679906       -0.0431531555
 C         -3.5913390327       -0.2110976086       -0.0424872185
 C         -1.4817442423        1.1141540851        0.0676441479
 O         -0.8887321496        2.1726264965        0.1286084944
 N         -0.7838163108       -0.0952732482        0.0859706327
 C          0.6060403758       -0.0352616166        0.0349450666
 N          1.3434103788       -1.0442961911       -0.2354155988
 C          2.6655052331       -0.7295380604       -0.2068336545
 C          3.7153618633       -1.6112588205       -0.4531971671
 C          5.0088287010       -1.1450791732       -0.3830875958
 C          5.2592451208        0.1928170698       -0.0720114851
 Cl         6.8971096670        0.7373938265        0.0083034603
 C          4.2396105930        1.0925875240        0.1734440972
 C          2.9390282648        0.6209401419        0.1072348051
 S          1.4503386716        1.4890355240        0.3358791600
 H         -2.9168770576       -3.5178512464        0.2335792927
 H         -5.3832323242       -3.6405304550        0.0035679676
 H         -6.7051116692       -1.5777921158       -0.2472981927
 H         -6.7936456854        0.8990229970       -0.3874964881
 H         -5.6250467235        3.0660418718       -0.3813487815
 H         -3.1567367866        3.1486355546       -0.1574963291
 H          3.4974936275       -2.6397497045       -0.6898409428
 H          5.8397794734       -1.8078491007       -0.5669189671
 H          4.4479371749        2.1233065524        0.4110862724
  34
  -67.1116667800000       0.155251612699988      !
 O         -0.7701531115       -2.4562243930       -0.1743790907
 C         -1.3988915015       -1.4359261122       -0.0875738749
 C         -2.8382542050       -1.3906850417        0.2083201780
 C         -3.4778555245       -2.5404279156        0.6261272934
 C         -4.8424644614       -2.5189614564        0.9283822903
 C         -5.5665925389       -1.3620263332        0.7969664467
 C         -4.9523911125       -0.1719429059        0.3539296662
 C         -5.6605600302        1.0357523534        0.1801729461
 C         -5.0249416858        2.1651158483       -0.2678977441
 C         -3.6557182640        2.1453515529       -0.5478992271
 C         -2.9271738136        0.9852949331       -0.3762067402
 C         -3.5643333883       -0.1914024902        0.0675806987
 C         -1.4787608069        1.0002711686       -0.6029130693
 O         -0.8868378537        1.9768602878       -1.0153850142
 N         -0.7858555519       -0.1679649482       -0.2794134844
 C          0.5999715839       -0.0983189860       -0.2020793877
 N          1.3054428124       -0.9740670074        0.4080721507
 C          2.6275554325       -0.6584285347        0.3903960723
 C          3.6464167077       -1.4012641944        0.9817848665
 C          4.9410498698       -0.9396365729        0.9034662814
 C          5.2228998909        0.2551331869        0.2388353890
 Cl         6.8597899796        0.8049284387        0.1710964040
 C          4.2350047528        1.0124437511       -0.3612083123
 C          2.9332877374        0.5457873907       -0.2832877708
 S          1.4734562306        1.2751733142       -0.8843388799
 H         -2.9025755986       -3.4487147134        0.7217928785
 H         -5.3232225119       -3.4248318124        1.2649084937
 H         -6.6222191139       -1.3467280205        1.0259127664
 H         -6.7176546958        1.0532942725        0.4021331834
 H         -5.5782704122        3.0817775304       -0.4039477686
 H         -3.1473550819        3.0337052628       -0.8908844481
 H          3.4031472888       -2.3191354323        1.4909872891
 H          5.7476401128       -1.4943672586        1.3559755257
 H          4.4687161175        1.9333891759       -0.8700970700
  34
  -67.1111682400000       9.160580584444850E-002 !
 O         -0.7426575424       -2.2213962431        0.4079560836
 C         -1.4110589708       -1.2268390397        0.2430283604
 C         -2.8785480058       -1.2190939241        0.2675562850
 C         -3.5579929745       -2.3991655761        0.4931987631
 C         -4.9547944347       -2.4131491056        0.5345034820
 C         -5.6663020200       -1.2550888751        0.3548878067
 C         -5.0074241324       -0.0296701042        0.1221835062
 C         -5.7022446371        1.1828620964       -0.0699268879
 C         -5.0245665142        2.3517573304       -0.3016756285
 C         -3.6279206960        2.3619609858       -0.3544536449
 C         -2.9132171091        1.1961607552       -0.1670055034
 C         -3.5900325136       -0.0166148877        0.0766509668
 C         -1.4456974753        1.2333056109       -0.2425696243
 O         -0.8147740277        2.2171440704       -0.5385585251
 N         -0.7973479100        0.0137537609        0.0272904532
 C          0.5990956062        0.0392137523        0.0534591908
 N          1.2776212767        0.8489316200        0.7670035768
 C          2.6154290813        0.6895208011        0.5746390184
 C          3.6236526272        1.4190831250        1.1983689957
 C          4.9381277248        1.1365949864        0.9005327605
 C          5.2531688350        0.1300380357       -0.0137224928
 Cl         6.9130285327       -0.1939454192       -0.3605364196
 C          4.2776493557       -0.6144292093       -0.6500887067
 C          2.9568422928       -0.3254011408       -0.3504730624
 S          1.5178395252       -1.0720716762       -0.9655474696
 H         -2.9896856094       -3.3057862196        0.6362292059
 H         -5.4693977869       -3.3455003099        0.7103391195
 H         -6.7460926242       -1.2645463489        0.3880913104
 H         -6.7819335104        1.1726278912       -0.0335159721
 H         -5.5660259412        3.2738463789       -0.4485415925
 H         -3.0864452887        3.2768788809       -0.5414591972
 H          3.3588653338        2.1932313511        1.8994594305
 H          5.7355957230        1.6897332424        1.3706127764
 H          4.5357473071       -1.3890278404       -1.3535884132
  34
  -67.1111398900000       8.889846079725339E-002 !
 O         -0.6913307015       -2.3141603539       -0.1784438808
 C         -1.3776026530       -1.3224847379       -0.1594405990
 C         -2.8452554106       -1.3403182207       -0.2357324934
 C         -3.4969084368       -2.5429280180       -0.4201215512
 C         -4.8920804801       -2.5881182293       -0.4883743211
 C         -5.6306538087       -1.4393162603       -0.3693361448
 C         -5.0011035732       -0.1918045700       -0.1763923144
 C         -5.7244472797        1.0120544836       -0.0435216735
 C         -5.0760798206        2.2047211257        0.1475247017
 C         -3.6807031174        2.2490959362        0.2128634382
 C         -2.9392718375        1.0920329595        0.0854612283
 C         -3.5851371265       -0.1462749540       -0.1110025002
 C         -1.4742039113        1.1653851083        0.1412623732
 O         -0.8574392331        2.1922318893        0.3088124037
 N         -0.7975780723       -0.0486089073       -0.0297175260
 C          0.5990626318        0.0069212563       -0.0457504555
 N          1.3114751137       -0.4336717024       -1.0061503360
 C          2.6410470767       -0.2858123800       -0.7553961764
 C          3.6797569539       -0.6642728219       -1.6012388061
 C          4.9803407673       -0.4405225660       -1.2077974614
 C          5.2514066523        0.1590025664        0.0232618798
 Cl         6.8946454801        0.4227173765        0.4801204090
 C          4.2445880270        0.5475159758        0.8872036683
 C          2.9379520901        0.3194153032        0.4888460895
 S          1.4678940597        0.6937396643        1.3289230000
 H         -2.9070637780       -3.4423950988       -0.5112867675
 H         -5.3840359985       -3.5375866121       -0.6352712115
 H         -6.7092275192       -1.4729318308       -0.4204084026
 H         -6.8030097477        0.9763582641       -0.0942295142
 H         -5.6395112635        3.1198284758        0.2482000230
 H         -3.1620969846        3.1841970718        0.3610999518
 H          3.4494052888       -1.1271967389       -2.5465333185
 H          5.8005805521       -0.7262335950       -1.8468582119
 H          4.4684505540        1.0089103514        1.8350379253
  34
  -67.1110038400000       7.697859685632420E-002 !
 O         -0.7113150441       -2.1979569769        0.5120731000
 C         -1.3976230057       -1.2232348786        0.3092194765
 C         -2.8653821713       -1.2245550120        0.3494326507
 C         -3.5345359235       -2.3929275829        0.6517211888
 C         -4.9307579471       -2.4128807742        0.7093969550
 C         -5.6514437095       -1.2724064499        0.4659804284
 C         -5.0031716576       -0.0593981186        0.1520543493
 C         -5.7095918996        1.1336314843       -0.1079977563
 C         -5.0441416616        2.2924586713       -0.4137410254
 C         -3.6479166979        2.3118976639       -0.4728702136
 C         -2.9223978278        1.1652934887       -0.2213796170
 C         -3.5862444534       -0.0388304995        0.0944913895
 C         -1.4553911501        1.2104759633       -0.2916073227
 O         -0.8209245583        2.1868301741       -0.6111455002
 N         -0.8045954249        0.0103837914        0.0229034287
 C          0.5962923376        0.0450964979        0.0399876120
 N          1.2784153714        0.6324018980        0.9402051648
 C          2.6158709125        0.5224981714        0.7096807520
 C          3.6286541228        1.0499362786        1.5057204342
 C          4.9411801627        0.8478980446        1.1419365533
 C          5.2499746931        0.1233499787       -0.0105610661
 Cl         6.9072232758       -0.1064629061       -0.4333872480
 C          4.2696823280       -0.4148087034       -0.8230945729
 C          2.9508003189       -0.2095256961       -0.4537812372
 S          1.5065593875       -0.7496387167       -1.2461309174
 H         -2.9584527507       -3.2852876352        0.8441898622
 H         -5.4372658686       -3.3355663365        0.9483403045
 H         -6.7307324380       -1.2860900995        0.5106452372
 H         -6.7887984729        1.1168527240       -0.0621814277
 H         -5.5947589510        3.1994000260       -0.6118388369
 H         -3.1152100331        3.2193634518       -0.7138698698
 H          3.3691884267        1.6070743364        2.3907327917
 H          5.7420338778        1.2475693511        1.7433398883
 H          4.5228224078       -0.9724028937       -1.7098465088
  34
  -67.1109461900000       7.242289565380292E-002 !
 O         -0.7001093126       -2.2845927417       -0.3353074019
 C         -1.3888451813       -1.2968556500       -0.2400447113
 C         -2.8569893418       -1.3025906704       -0.2999496310
 C         -3.5211477141       -2.4897627697       -0.5314895127
 C         -4.9171252258       -2.5188258059       -0.5920606154
 C         -5.6431253216       -1.3688725913       -0.4196043974
 C         -5.0004139543       -0.1365398007       -0.1782238081
 C         -5.7124620313        1.0670889170        0.0075860304
 C         -5.0530289187        2.2456745094        0.2426572614
 C         -3.6570107407        2.2751965689        0.3012908302
 C         -2.9265970437        1.1181198248        0.1231282310
 C         -3.5837375326       -0.1067082516       -0.1193300517
 C         -1.4601849963        1.1744670961        0.1768272465
 O         -0.8244232748        2.1813756725        0.3870759864
 N         -0.8044396207       -0.0408806020       -0.0402619278
 C          0.5972376050        0.0054274689       -0.0499455709
 N          1.3003133152       -0.0411087514       -1.1096435404
 C          2.6323579745        0.0162622141       -0.8326043139
 C          3.6635368965       -0.0101221116       -1.7672394287
 C          4.9669395074        0.0622350608       -1.3295208093
 C          5.2484412461        0.1597742508        0.0341945851
 Cl         6.8953314212        0.2468630675        0.5426221688
 C          4.2492951616        0.1899611824        0.9889728515
 C          2.9395929614        0.1173953002        0.5446205089
 S          1.4767719237        0.1327236473        1.4748488997
 H         -2.9411684307       -3.3904843588       -0.6645388631
 H         -5.4192469412       -3.4564448313       -0.7753825187
 H         -6.7222238345       -1.3895266389       -0.4658942509
 H         -6.7914621459        1.0426229096       -0.0386392940
 H         -5.6079761210        3.1605718674        0.3839154530
 H         -3.1285678941        3.1985479280        0.4846417566
 H          3.4251016538       -0.0863469167       -2.8151520258
 H          5.7816975095        0.0436544722       -2.0355303918
 H          4.4813476351        0.2669662712        2.0384376642
