  70
        -98.22811139
 C         -0.2744823330        3.0794501666       -2.9184663506
 C          1.0139637692        2.7334142901       -2.1852170025
 C          1.8722530322        1.7507979846       -2.9789030343
 C          3.0702887881        1.2630317919       -2.1687603625
 O          2.5614218713        0.6058222940       -1.0305636685
 C          3.4058261654        0.0281812759       -0.1391942180
 C          4.7776503617       -0.1004536055       -0.2987238706
 C          5.5263693715       -0.7812134485        0.6500175701
 C          4.9156476990       -1.3434529650        1.7558654539
 C          3.5486174785       -1.2087305764        1.9279981298
 C          2.7794392766       -0.5123372579        1.0049480251
 C          1.3385255392       -0.3041122946        1.1716395589
 C          0.4392127696       -1.4057592528        1.1446397184
 C          0.8849105345       -2.7253313701        1.0218997604
 C         -0.0083071458       -3.7954167979        1.0443897642
 C         -1.3576896081       -3.5617918133        1.1960403756
 C         -1.8314498617       -2.2515290550        1.2741390236
 C         -0.9641640961       -1.1611708561        1.2021211297
 C         -1.4540554146        0.1820092544        1.1811560796
 C         -2.8823832417        0.4039436693        0.9519543356
 C         -3.7094235044        1.0708089885        1.8474816767
 C         -5.0567803104        1.2399761249        1.5781683802
 C         -5.5893268474        0.7571857106        0.3964009886
 C         -4.7828860740        0.1031663214       -0.5236822918
 C         -3.4357696929       -0.0810962006       -0.2550169609
 O         -2.5388369853       -0.6618563747       -1.0888157544
 C         -2.9543813500       -1.3889693024       -2.2215683841
 C         -1.7895225764       -2.2997893445       -2.6059740945
 C         -0.5193091967       -1.5022171025       -2.8936556956
 C          0.6794693639       -2.4152366005       -3.1105065471
 C         -0.5536028020        1.2814998821        1.2806903576
 C         -0.9944001886        2.6079493493        1.2946893652
 C         -0.0995488113        3.6686048378        1.4332846722
 C          1.2493038509        3.4191442476        1.5577017985
 C          1.7208098784        2.1075230575        1.4955571951
 C          0.8507463060        1.0301441501        1.3181107997
 H         -0.8751926989        2.1849372558       -3.0666964845
 H         -0.0612255057        3.5182058554       -3.8914907672
 H         -0.8589504943        3.7899905847       -2.3391592102
 H          0.7693331362        2.2831710361       -1.2232593867
 H          1.5857608844        3.6444397507       -1.9932463458
 H          2.2337869350        2.2160905398       -3.8981731123
 H          1.2659002755        0.8839900791       -3.2453948696
 H          3.7011152196        2.1110748594       -1.8654889062
 H          3.6760135063        0.5735714504       -2.7744164280
 H          5.2727640955        0.3221257185       -1.1595001610
 H          6.5939647086       -0.8716298313        0.5146767495
 H          5.5025340834       -1.8749855347        2.4896508137
 H          3.0663708269       -1.6182102016        2.8037440634
 H          1.9402075533       -2.9183872830        0.9020748806
 H          0.3664319862       -4.8044638966        0.9511486142
 H         -2.0556583338       -4.3852531046        1.2418088177
 H         -2.8917753443       -2.0789825506        1.3869797898
 H         -3.2921646521        1.4249285790        2.7788882083
 H         -5.6899803099        1.7448704236        2.2920143189
 H         -6.6384973115        0.8915784848        0.1787841089
 H         -5.2092145883       -0.2483652650       -1.4511189359
 H         -3.8419624212       -1.9933293593       -1.9929330459
 H         -3.1990988178       -0.7013718556       -3.0445760155
 H         -1.5990109780       -2.9771781275       -1.7712384113
 H         -2.0732192353       -2.8933287144       -3.4772683053
 H         -0.6763494770       -0.8805302724       -3.7791752251
 H         -0.3223482787       -0.8457536575       -2.0448527834
 H          0.8572058596       -3.0167306777       -2.2219803319
 H          0.5103049363       -3.0832737528       -3.9530794096
 H          1.5739400242       -1.8298696917       -3.3088333080
 H         -2.0476865557        2.8176871321        1.1900515435
 H         -0.4737928760        4.6816790061        1.4480971708
 H          1.9486367169        4.2317941190        1.6883317630
 H          2.7812727236        1.9229022362        1.5820372109
