106
 energy: -165.277104325060 gnorm: 0.000076543799 xtb: 6.7.1 (edcfbbe)
O           -0.01418450994974        4.59403806610357        0.22900038372957
C           -0.01269867619654        3.31962154517059        0.17684857571099
C           -1.27175256268342        2.60053272044569        0.15622915310348
C           -1.43332635513375        1.32801516275743       -0.42575958247879
C           -2.66446399713558        0.71757409533274       -0.45964451884267
C           -3.78482946982440        1.35680195776072        0.07424995216226
N           -5.05478643554528        0.71092032722263        0.04387024342955
C           -5.33846936063650       -0.25071467933044        0.99211783922662
C           -4.39452981271817       -0.56300328795962        1.98090438396528
C           -4.66138109418436       -1.52403863754563        2.93071845094829
C           -5.87600795904311       -2.19624490071125        2.92317258025930
C           -6.81853324641679       -1.88581842182861        1.96067037990029
C           -6.57075477361841       -0.92052550706270        0.99547324841333
C           -7.63965628430112       -0.61329825166315       -0.01930741251653
C           -8.94748559201111       -0.26263170164380        0.67214989402458
C           -9.20660833245993        0.79831732981164        1.51119341518909
C          -10.48500929503728        0.92672838734048        2.03965594972649
C          -11.47699962589193        0.00879984295121        1.72893193579144
C          -11.21902752386560       -1.05995361304181        0.88466004726337
C           -9.94576818027178       -1.19450016824661        0.35534981501830
C           -9.38047980958214       -2.19305307669179       -0.54041033252249
C           -9.94435848764224       -3.31142668390817       -1.13276442913318
C           -9.15230432901257       -4.09719093681154       -1.95540951629845
C           -7.82333700197193       -3.77423038629682       -2.18463029213449
C           -7.25164994558979       -2.65470366014520       -1.59316609678113
C           -8.03594081991633       -1.87319886518738       -0.77418951081143
C           -7.23485785992131        0.47038124035869       -0.98274488102022
C           -8.13392201779866        0.86903553937006       -1.96117192003195
C           -7.80281786131197        1.84159231443821       -2.88625197929130
C           -6.54322606159117        2.42368867250352       -2.84321042014099
C           -5.63606319785254        2.04442177017508       -1.87871172804325
C           -5.96886716057974        1.07197852444027       -0.92473687916214
C           -3.65471405564005        2.63779692612116        0.61638806450083
C           -2.42696597196129        3.24867351010025        0.64416675496287
C            1.24921143441764        2.60553102536011        0.13590262900593
C            1.41864596443553        1.29405922037696        0.62098649985584
C            2.65082561547021        0.68514943396570        0.59650906007905
C            3.76447051104751        1.36426744781088        0.09866338553575
N            5.03580670895323        0.72192999325818        0.06373659872188
C            5.30033469501105       -0.18487862712398       -0.94274467013724
C            4.33103529335356       -0.45506820118248       -1.91936368965971
C            4.57716556247191       -1.36514402380175       -2.92346371366380
C            5.79666140183767       -2.02562228512468       -2.98506647561485
C            6.76545171144058       -1.75275163795700       -2.03745023829614
C            6.53845293363378       -0.83959523089404       -1.01790469453583
C            7.63967152818321       -0.56365522914361       -0.02908301442187
C            8.90304618927421       -0.12404080868043       -0.75275419244014
C            9.08951734090594        0.99614427515786       -1.53191345194072
C           10.33772413735052        1.20227435520578       -2.10599977010058
C           11.37187140089797        0.30198630172474       -1.89836131322868
C           11.18712158891738       -0.82598686072280       -1.11407271182296
C            9.94414179148247       -1.03835920623266       -0.54018445530331
C            9.45294414156692       -2.11000282205922        0.31375887303198
C           10.08031290380431       -3.24118826482220        0.81012381720257
C            9.35371785997557       -4.10271446872715        1.61715786255524
C            8.02679143069641       -3.84195270020059        1.92411972661626
C            7.39140540528840       -2.71030344444949        1.42843007302418
C            8.11067374914026       -1.85303090046146        0.62565997797395
C            7.24522436377097        0.44520296868532        1.01634124402232
C            8.16525937350624        0.79161938409768        1.99516693333152
C            7.84759180844603        1.69783729001390        2.98966758046692
C            6.58051191738727        2.26443651843446        3.01702044276753
C            5.65260595841363        1.93636027716723        2.05344795827613
C            5.97123929380448        1.03225104034676        1.02986875189378
C            3.62687918765672        2.68239593349014       -0.34353097937114
C            2.39835129179165        3.29151634570273       -0.31236580273043
H           -0.58911989979936        0.84149755565580       -0.89015203337719
H           -2.77860839592275       -0.25669468327632       -0.91382103428990
H           -3.45289636273971       -0.03704531989272        1.99534439289048
H           -3.91982412028389       -1.74894362800227        3.68236459856632
H           -6.08737677413110       -2.95061807042967        3.66511065125524
H           -7.76967741066753       -2.39729353633840        1.95238667177509
H           -8.43542630988668        1.51472591103651        1.75521499267142
H          -10.70772858182126        1.75132840956223        2.70084213475785
H          -12.46413553579319        0.12911210916072        2.15130974003696
H          -11.99496952358166       -1.77202743845209        0.64619404647422
H          -10.97878050543721       -3.56708024557099       -0.95792309492526
H           -9.57526601839042       -4.97352847526206       -2.42487482666726
H           -7.22479618095065       -4.39991331586752       -2.83041167662981
H           -6.21617264351811       -2.40457663821948       -1.77362149647661
H           -9.10750999686240        0.40267545650365       -1.99409076892313
H           -8.51651735159109        2.13936207360217       -3.63866782679355
H           -6.26634342039817        3.17607795595923       -3.56617796526866
H           -4.65687188027753        2.49636647499732       -1.85297122355283
H           -4.52682134818647        3.13777974181465        1.01315008157954
H           -2.30865208370754        4.24171652182361        1.05358893707648
H            0.57972768530571        0.77372011463598        1.05754617705775
H            2.77107623689976       -0.31968407109490        0.97641653606301
H            3.38549840589445        0.06251884661980       -1.88097999843699
H            3.81552058716624       -1.55864606765465       -3.66372460618591
H            5.99186449360797       -2.74063797374670       -3.76923428327360
H            7.72163045808744       -2.25268264572964       -2.08410347134380
H            8.28573124684332        1.69952980398162       -1.69508831409616
H           10.50351664702960        2.07463526885806       -2.72104665549446
H           12.33444008948484        0.48305921324802       -2.35444173622113
H           11.99593706984251       -1.52348304094808       -0.95508409348907
H           11.11346902909675       -3.44844537718917        0.57446787416431
H            9.82683609364030       -4.98955105041176        2.01335506807647
H            7.47988743763608       -4.52639203095453        2.55587179199466
H            6.35763386256252       -2.50927113963833        1.66960401048897
H            9.14492304670031        0.33748192237328        1.97214106755420
H            8.57752297314717        1.95590585686333        3.74116780216421
H            6.31402011067183        2.96432358149473        3.79458343419160
H            4.66766482090802        2.37539351496268        2.08305687083258
H            4.49391174178227        3.21263560792044       -0.71102032417448
H            2.27486010393349        4.31245960294839       -0.64425254938287
