106
 energy: -165.350022955977 gnorm: 0.000071847303 xtb: 6.7.1 (edcfbbe)
O            0.00973433963907        4.81050702985910       -0.21660904333204
C            0.00125324901604        3.59092955775766       -0.14073489716798
C           -1.26993111613662        2.83071849771823       -0.08884686776896
C           -1.39633325256812        1.56391689932053       -0.65951491420117
C           -2.60871920184125        0.90401308766366       -0.62501148822513
C           -3.71174078793168        1.49343054643231       -0.01245457010375
N           -4.95024792424682        0.80624171329003        0.03030160661462
C           -5.07975428750464       -0.30105979134343        0.86081923865009
C           -4.02142443829168       -0.69523849789456        1.68487164150027
C           -4.13540899340536       -1.79552320831390        2.51025802263291
C           -5.31252556629235       -2.52351524562797        2.54381952417193
C           -6.37338587845160       -2.12294140523247        1.75339488691795
C           -6.27656759740626       -1.02002313058117        0.91713148374583
C           -7.48364161801212       -0.62633576714152        0.10089551302353
C           -8.70306394589512       -0.46932193992961        0.98969193011974
C           -8.89881821195234        0.42505210554636        2.01906787877408
C          -10.10530404606150        0.39269161343199        2.70644859230821
C          -11.09223515534980       -0.51979058961323        2.36486617170930
C          -10.89953903267180       -1.42201170381530        1.33023079688344
C           -9.69777394789462       -1.39448004521880        0.64152973987392
C           -9.21043773090639       -2.20153627788089       -0.46775252610693
C           -9.80155696150667       -3.24027501741800       -1.16841516954966
C           -9.08856199432939       -3.83785225289338       -2.19605751522527
C           -7.81019572243349       -3.40805395842708       -2.51899012770740
C           -7.21313709874472       -2.36657159859504       -1.82047757167308
C           -7.91790764328645       -1.77006876462163       -0.79813202193828
C           -7.24938357794805        0.62140755035957       -0.71646136097996
C           -8.29249124767392        1.11167849039619       -1.48885150975638
C           -8.13237419094572        2.22381191600419       -2.29390983333634
C           -6.89698646339898        2.84680829028208       -2.34313430915441
C           -5.84825743024519        2.37412650437697       -1.58045292900904
C           -6.01138973734978        1.26933407713265       -0.73941051138893
C           -3.59289415932163        2.76198297246841        0.55046912212553
C           -2.38534384352550        3.42708318743728        0.50014771989073
C            1.26110287894658        2.81204247431551       -0.09758719763522
C            1.37166853204204        1.62578504081159        0.62842313892708
C            2.57291198355835        0.94619391563094        0.67103483803729
C            3.68017157455407        1.43333899807202       -0.01935388215889
N            4.90870865374811        0.72867081830264        0.00984703565959
C            5.01367180001115       -0.48707995757314       -0.65706933550329
C            3.91872253586444       -1.01643673765952       -1.34645356486931
C            4.00961467352052       -2.22694337338431       -2.00324694582217
C            5.19838570294150       -2.93622709876022       -1.99795985724165
C            6.29489438822233       -2.40428970424488       -1.34577321084669
C            6.22237870681716       -1.18833460428323       -0.68130934733250
C            7.47513293920988       -0.64489048334634       -0.03770127596998
C            8.56950607558145       -0.47588522154109       -1.07656626316469
C            8.57389810474035        0.34010462295045       -2.18644062425467
C            9.69358220389277        0.33741068312484       -3.00822802198251
C           10.78400835129736       -0.46900666662676       -2.71865325900560
C           10.78370693367064       -1.29218381382535       -1.60339667286424
C            9.66941390532219       -1.29335609407496       -0.78023093102750
C            9.37899586357980       -2.03530171645575        0.43814505276906
C           10.13053130725688       -2.96232063593878        1.14177877089263
C            9.59134257513228       -3.51847983792839        2.29135400195295
C            8.32668611292642       -3.15699127869311        2.73113248277266
C            7.56923011601699       -2.22748833024069        2.02999887914296
C            8.10115451673427       -1.67172964241533        0.88711754669375
C            7.23475457201148        0.65392311646098        0.69336841021700
C            8.29022239643934        1.23110713856434        1.38484668242239
C            8.13097094256540        2.40919589610662        2.09011204625257
C            6.88506558495047        3.01221715330803        2.12156162522170
C            5.82369025461070        2.45222177158199        1.43990363647969
C            5.98505111099370        1.27883018636851        0.69704445441796
C            3.57803835650208        2.62466823203569       -0.73425123551652
C            2.38230338069904        3.31175053513059       -0.76096528533551
H           -0.55317929775906        1.10959066877272       -1.15707992725400
H           -2.71165494650154       -0.07355155551113       -1.07211313885675
H           -3.10293205658924       -0.12928028138068        1.68347809291509
H           -3.30036411307207       -2.08046219048452        3.13328169543705
H           -5.40761598834243       -3.38698564543757        3.18438069744627
H           -7.30377088867868       -2.67185757378408        1.78223292677964
H           -8.13059778297579        1.13610915351474        2.28749008518290
H          -10.27669473874702        1.08633717345293        3.51686979197188
H          -12.02335056582953       -0.52710553969288        2.91325830412387
H          -11.67145829719665       -2.13068576587046        1.06827171217549
H          -10.79703400232457       -3.57867698842819       -0.92104762371860
H           -9.53401481839309       -4.64953610788945       -2.75330589094142
H           -7.27256765463942       -3.88850908165579       -3.32362915102625
H           -6.21764173226466       -2.03188260255800       -2.07480848599022
H           -9.24543592316591        0.60319009807804       -1.45689056997730
H           -8.95749192714527        2.59087745578392       -2.88494919505184
H           -6.74345823699535        3.70482335481142       -2.98102298967885
H           -4.88888328434279        2.86394238901084       -1.64358807081121
H           -4.45195670291385        3.21863623754874        1.01896698168384
H           -2.28056602824844        4.41319769004286        0.92814760516650
H            0.52525565357315        1.25290663637226        1.18477672857384
H            2.66388409997447        0.03316249695200        1.24048802002084
H            2.98900772094997       -0.47023436489165       -1.37553780398997
H            3.14633910190037       -2.61347976568640       -2.52469596209394
H            5.27542742807405       -3.88538793750835       -2.50591992413192
H            7.23530783567822       -2.93646923650788       -1.35223729185643
H            7.72511014566440        0.96864223258819       -2.41487802636303
H            9.71518215025591        0.97071675120826       -3.88329758514825
H           11.64499622502601       -0.45492387694060       -3.37156641766337
H           11.63545896404876       -1.91862237315436       -1.38253462209083
H           11.11610304315460       -3.24682619516405        0.80352492341634
H           10.16397223179977       -4.24262942837898        2.85305722056998
H            7.92623421117890       -3.60315749560956        3.62996625584609
H            6.58488069024885       -1.94572256927862        2.37550476303508
H            9.25293637750595        0.74063747616803        1.36656403146325
H            8.96608129218618        2.84464153516347        2.61725612761646
H            6.73336024854275        3.92248258091518        2.68282621453385
H            4.85635126273309        2.92806493315285        1.48794170820836
H            4.44150220678067        3.00513852552730       -1.25926183339889
H            2.29056495946870        4.23824160446074       -1.30845368482260
