106
 energy: -165.277149081580 gnorm: 0.000043429257 xtb: 6.7.1 (edcfbbe)
O           -0.00994910635656        4.57204214143007       -0.37773201452334
C           -0.00924515986444        3.30037876177254       -0.27958050800567
C           -1.26909011175096        2.58950226176006       -0.17332481492997
C           -1.45386263740331        1.26101781966321       -0.60340875009117
C           -2.68538524725635        0.65597148745896       -0.51994507643927
C           -3.78351882534144        1.35564055510302       -0.01600905401843
N           -5.05345903772307        0.71687323873160        0.07773631885141
C           -5.28591568584731       -0.15999426008560        1.11817690830854
C           -4.29199604741760       -0.38941339440329        2.08038542847728
C           -4.50553262943816       -1.26983027695489        3.11783548516812
C           -5.71633552788747       -1.93984223636046        3.22825001644762
C           -6.70945768375632       -1.70610736754695        2.29546803663443
C           -6.51551587610631       -0.82306019958556        1.24309381627547
C           -7.64002669362527       -0.59251090804381        0.26911968089351
C           -8.90445019493445       -0.17659970640739        1.00409773209417
C           -9.11041746839346        0.94945596785446        1.76983203189597
C          -10.35598051477023        1.13078925072767        2.35785990479130
C          -11.36848452813807        0.20058529830074        2.17719034010165
C          -11.16412666503149       -0.93348706804710        1.40663772157306
C           -9.92365035067065       -1.12116996624729        0.81892319595486
C           -9.41528386643224       -2.19210450151009       -0.02584106621490
C          -10.01897861482196       -3.34635666793852       -0.49784430272193
C           -9.27997300656577       -4.20083342524484       -1.30108872086533
C           -7.96409238470729       -3.91046612533083       -1.62833704426033
C           -7.35266457046539       -2.75508703990033       -1.15790476264438
C           -8.08435073513265       -1.90487269620055       -0.35892022710616
C           -7.28883728442542        0.40662784347313       -0.80096397626960
C           -8.24181900839741        0.72916095135601       -1.75615935487254
C           -7.96296828384717        1.62047370292211       -2.77544877810705
C           -6.70139678394244        2.19449961381866       -2.85336601096204
C           -5.74078811130278        1.88917637348695       -1.91466585813701
C           -6.02035564692912        1.00221646687797       -0.86498449572150
C           -3.63145830772757        2.68881379437729        0.37342517689738
C           -2.40376187558733        3.29369825667771        0.28373170027942
C            1.25050926885226        2.58209215414720       -0.27297463613267
C            1.43228432910353        1.33257482419273        0.35129750897876
C            2.66509088294929        0.72478068220200        0.37031174448239
C            3.76720180495655        1.34402636378575       -0.22208969979876
N            5.03993396486504        0.70338650608383       -0.20427604552328
C            5.29677255616026       -0.30127596508727       -1.11484336607061
C            4.31955279966387       -0.66895122905325       -2.05087256795639
C            4.55872921539871       -1.67520502638098       -2.96041500537233
C            5.77854026683412       -2.33793856777709       -2.96527777336144
C            6.75413644093648       -1.97199641293534       -2.05675752900149
C            6.53436028138810       -0.96108510337140       -1.13230680432998
C            7.64089468734223       -0.59070362920109       -0.18094754876971
C            8.90372220247246       -0.23190555898379       -0.94874986982354
C            9.09240595370408        0.80331215099357       -1.83726797464429
C           10.34012524310731        0.94590502000339       -2.43132388092981
C           11.37124894863958        0.06664762136753       -2.13656016612242
C           11.18419513593225       -0.97602912232113       -1.24251158803168
C            9.94213469291463       -1.12384845723916       -0.64684736314644
C            9.44937447097155       -2.10154399074676        0.31241202935119
C           10.07415664198121       -3.17898603942474        0.91920949235261
C            9.34594608183285       -3.95346814985712        1.80879675397686
C            8.02008261244898       -3.65935176181120        2.08912370773323
C            7.38769394603429       -2.58047214173314        1.48399249377984
C            8.10867511035653       -1.80960931512399        0.59925262796286
C            7.25473169109243        0.52070695975642        0.75836289478133
C            8.18058370215403        0.96258289599600        1.69228882006484
C            7.87096627482030        1.96791210938856        2.58933964571883
C            6.60613315451613        2.53952350919350        2.56360401272886
C            5.67206361542478        2.11648942143694        1.64403686218647
C            5.98229393320395        1.10989244422455        0.71829102862810
C            3.61779933291159        2.60319426353756       -0.80853051425157
C            2.38867561640046        3.21175168774649       -0.82131539150838
H           -0.62868526783506        0.72258196527537       -1.04414344844089
H           -2.81747893822664       -0.36263707871195       -0.85693382076124
H           -3.35310153659081        0.13599453898450        2.00404907204587
H           -3.72534272113941       -1.43224022370757        3.84616408226159
H           -5.88587821142953       -2.63222599858644        4.03826675864792
H           -7.65901915046489       -2.21365148653160        2.37987965404415
H           -8.32345917140069        1.67605568439509        1.91207963035058
H          -10.53683797967004        2.00731508835022        2.96265134880262
H          -12.32933929606993        0.36277632881781        2.64388017696016
H          -11.95613830738277       -1.65437090717130        1.26861482886028
H          -11.04355046598378       -3.57647188729035       -0.24647126495868
H           -9.73446865092129       -5.10540220049538       -1.67854767192903
H           -7.40705634929941       -4.59026744896818       -2.25624925515763
H           -6.32756225469788       -2.53084809548742       -1.41513021402773
H           -9.21645690428882        0.26787274233670       -1.69482607558539
H           -8.71848214437031        1.86028126996963       -3.50748369889921
H           -6.46459238839033        2.88231359017861       -3.65107332629942
H           -4.76022646137112        2.33330016680743       -1.98460967020538
H           -4.48657525818791        3.23401302717914        0.74695670512656
H           -2.26928804604812        4.32550983462353        0.57526765638847
H            0.60372542494271        0.86353655531476        0.85979284365529
H            2.79527026560146       -0.23107215599124        0.85808945533871
H            3.37362612306702       -0.15065256825614       -2.05627965158107
H            3.79134289789228       -1.94289866886817       -3.67098491098254
H            5.96827844302632       -3.12807063195738       -3.67514613314506
H            7.70993746049708       -2.47479155630279       -2.05984037782193
H            8.29067433133135        1.48961104298484       -2.06903994705699
H           10.50783855514130        1.75146214079704       -3.13116744908132
H           12.33323245791716        0.19690623048406       -2.61083906595104
H           11.99021569832391       -1.65814697295728       -1.01664369668665
H           11.10647911832543       -3.41158141222302        0.70439995448905
H            9.81719107364512       -4.79757420758710        2.29117763644745
H            7.47165844367505       -4.27608350406404        2.78597313151946
H            6.35477271261743       -2.35336049577429        1.70484448655494
H            9.15862430478408        0.50485844013330        1.71176744092145
H            8.60569094641986        2.29962565208478        3.30649588075823
H            6.34619677385024        3.31829382166290        3.26460629782387
H            4.68880430284181        2.56005795599345        1.63264784267428
H            4.47632570593564        3.08867437832800       -1.25045228234182
H            2.25617468921665        4.18871365687850       -1.26374202398134
