86
 energy: -124.503257823757 gnorm: 0.000173497120 xtb: 6.7.1 (edcfbbe)
C            9.06234616646567       -3.35308376343271       -1.04661520231365
C            9.14272307639781       -2.65392538526692        0.31034078465069
N            9.37736512308676       -1.24272355758367        0.16876794777605
C           10.60911157800522       -0.63901823619804        0.07814235869365
C           11.87834235047794       -1.19409589890075        0.16603534499179
C           12.96451290057318       -0.34773718604899        0.05344866631032
C           12.80311672130263        1.02187489676106       -0.14506084103565
C           11.54499894078990        1.58169037078813       -0.23783752284109
C           10.43689261232364        0.75165423120422       -0.12767494435207
C            9.02264831216043        0.97906963612296       -0.18181305644826
C            8.23551293725483        2.10960983902182       -0.36115905391833
C            6.86475195498842        1.97301985419157       -0.36153661592231
C            6.25050315139721        0.72246223345667       -0.19554198804220
C            4.78774658699523        0.61539872916533       -0.21036664970474
C            4.15016715949026       -0.44809604619673       -0.85102757017528
C            2.77744483592783       -0.54428952005742       -0.86468166870333
C            1.96981455084825        0.41137420892740       -0.23170431105661
C            0.53913845070179        0.25187332652099       -0.27593921238047
C           -0.37954966916818        1.06340736549862        0.29721678852849
C           -1.80039047054218        0.90642975458622        0.25665999007705
C           -2.61211145034544        1.82895767052115        0.94984209101238
C           -3.97436183846657        1.74158886131115        0.94547831813749
C           -4.64279219094842        0.70112829046375        0.24902588791115
C           -6.04419665118017        0.55602403228072        0.27257679032503
C           -6.65138563829039       -0.74657388909412       -0.04137329676029
C           -6.20042375237810       -1.90610804946983        0.66507439353501
C           -5.58583063376093       -1.78352323591893        1.92714418752221
C           -5.11866299257076       -2.88979915794608        2.59928866905378
C           -5.23014011310965       -4.15462423022566        2.03726921098196
C           -5.81173227505745       -4.29559526584016        0.78453324451002
C           -6.29112758290853       -3.19684807920566        0.10710092135249
C           -7.69458914099475       -0.78233140855508       -1.02291189861167
C           -7.75067171896808        0.19227726292036       -2.03754839801152
C           -8.76741975801025        0.19311004461565       -2.96509489127192
C           -9.77247027954513       -0.76317562763224       -2.90807984213370
C           -9.74819006509167       -1.71945788911430       -1.90251675795706
C           -8.72962402355220       -1.73531700570614       -0.97545985326989
C           -6.94884872474784        1.63304209161728        0.59983897856482
C           -6.67540338652839        2.96251682319001        0.24155791000111
C           -7.57694138488329        3.96816252061711        0.51941289118121
C           -8.77241787465564        3.68365043668191        1.16210631540880
C           -9.06566423339416        2.37304307498741        1.51050409116861
C           -8.17470968442253        1.36098781495631        1.22739312728023
C           -3.82106784411267       -0.23947285073266       -0.42672230607368
C           -2.46078936135623       -0.13236096904025       -0.43133559832239
C            2.61710361647572        1.47466953700274        0.41182193686540
C            3.98988862983880        1.57391720754659        0.41725216496061
C            7.02853745166794       -0.41724978524299       -0.02087881083898
C            8.40727485717567       -0.28418409595788       -0.00740116698816
H            9.99288964392328       -3.21959935898703       -1.59352111165434
H            8.88329863691287       -4.41662243697304       -0.91233596175068
H            8.25278297527196       -2.93231877436716       -1.63850428864653
H            9.95442181339099       -3.08224063431517        0.90472891847655
H            8.20884834375890       -2.79677211215613        0.86146244222003
H           12.02319709339156       -2.25383294074053        0.31509387459441
H           13.96198509658619       -0.75742528940160        0.11865347038000
H           13.67821801914488        1.64914787340731       -0.22875828864047
H           11.41948708393340        2.64263823148106       -0.39416510555891
H            8.69332688110122        3.07759565948535       -0.50019007641843
H            6.24221764449160        2.84094470852408       -0.52026276397799
H            4.74290528370126       -1.19188167510742       -1.36423892481922
H            2.30667311695586       -1.37294038562911       -1.37587104396916
H            0.20164699252524       -0.61613908000667       -0.82700131520391
H           -0.03836349449432        1.92657202199876        0.85430795089421
H           -2.13293578849621        2.62028893623529        1.51054494614433
H           -4.55718897025298        2.43999660034451        1.52770203753716
H           -5.50757285456795       -0.80552242941945        2.37905854273761
H           -4.66246146331559       -2.77209451853193        3.57167674225305
H           -4.85921812104517       -5.02011204847652        2.56542782531714
H           -5.88142795810899       -5.27446225269912        0.33167259192365
H           -6.69859481768911       -3.31456227247901       -0.88628557812126
H           -6.96469032324531        0.93079117217982       -2.09782088184970
H           -8.78284237790829        0.94349288579865       -3.74239873739838
H          -10.57157524761347       -0.75732364207926       -3.63405885942818
H          -10.53925756342352       -2.45315893535243       -1.83954469810799
H           -8.74763446989709       -2.45608919459257       -0.17112690798684
H           -5.76810336031987        3.18930227704935       -0.29927159472564
H           -7.35191316696851        4.98356153521200        0.22567793151315
H           -9.47407029580179        4.47479010108640        1.38039353614092
H           -9.99821602647259        2.14315660276684        2.00539162278343
H           -8.40505012479090        0.34409957789323        1.51088677112292
H           -4.29645556287065       -1.03826195638723       -0.97702196400200
H           -1.88156525472427       -0.85986518898742       -0.97922653881785
H            2.03692696025707        2.23248017315468        0.91564978697311
H            4.46182016220456        2.39563431328898        0.93646766068449
H            6.55489102249226       -1.37656906372299        0.12517160817039
