  86
       -124.56261455
 C          8.8269308503        2.1825772966       -2.7368916437
 C          8.9845186772        0.6655165260       -2.6347665547
 N          9.2989697462        0.2520773784       -1.2943141622
 C         10.5612669882        0.1565656664       -0.7582236299
 C         11.7974328674        0.3567384235       -1.3569416302
 C         12.9280791824        0.1798414207       -0.5828359536
 C         12.8423212812       -0.1862326627        0.7587404840
 C         11.6172575194       -0.3829732427        1.3632833809
 C         10.4657186240       -0.2101783661        0.6063903076
 C          9.0661353282       -0.3159806520        0.8985549190
 C          8.3425853542       -0.6295829888        2.0420917572
 C          6.9662219475       -0.6336394714        1.9783897853
 C          6.2855156535       -0.3209990867        0.7927032122
 C          4.8178526213       -0.3185593026        0.7671442931
 C          4.1166607365        0.6773978544        0.0872722446
 C          2.7395788733        0.6899638413        0.0621473487
 C          1.9972082565       -0.3005989473        0.7123729026
 C          0.5494680920       -0.3414229695        0.7197355226
 C         -0.2735354039        0.5351617647        0.1233445699
 C         -1.7207562453        0.5004854872        0.1228572954
 C         -2.4146063697        1.4574953332       -0.6260066404
 C         -3.7908041581        1.4731492073       -0.6710161100
 C         -4.5363298675        0.5199501502        0.0228799945
 C         -6.0038181692        0.5536448113       -0.0255829614
 C         -6.7558921734       -0.5610129674       -0.1687605359
 C         -8.2216423585       -0.5415691631       -0.0330553840
 C         -9.0174571906       -1.2191826058       -0.9548732144
 C        -10.3941726928       -1.2121486159       -0.8335526051
 C        -10.9968654301       -0.5421707076        0.2181029961
 C        -10.2133960367        0.1161493827        1.1518808370
 C         -8.8372638372        0.1173974979        1.0294098163
 C         -6.1727034826       -1.8761036132       -0.4808612298
 C         -5.2107195891       -2.0184795219       -1.4792259673
 C         -4.6889252478       -3.2625194377       -1.7772713629
 C         -5.1188547421       -4.3838512223       -1.0865065743
 C         -6.0839127372       -4.2550705703       -0.1015737358
 C         -6.6127402819       -3.0129270873        0.1946238093
 C         -6.6020206494        1.8957337121        0.0841586218
 C         -7.5984839504        2.3123616833       -0.7959933008
 C         -8.1349498456        3.5817372316       -0.6965813982
 C         -7.6864135936        4.4545024689        0.2812167606
 C         -6.6878836991        4.0540315564        1.1533295327
 C         -6.1436541774        2.7876766558        1.0515556067
 C         -3.8521655070       -0.4250381956        0.7887468573
 C         -2.4761693304       -0.4345715355        0.8383219276
 C          2.7059970093       -1.2988615825        1.3896555587
 C          4.0835045126       -1.3071221872        1.4207707031
 C          6.9986303533       -0.0031489779       -0.3577634401
 C          8.3828152000       -0.0077760071       -0.3025107585
 H          9.7496246062        2.6768074320       -2.4417157871
 H          8.5862389862        2.4684686324       -3.7574502579
 H          8.0299923089        2.5224479640       -2.0795318623
 H          9.7842945215        0.3264277698       -3.2988253865
 H          8.0584010912        0.1711910145       -2.9417364268
 H         11.8833966793        0.6450071737       -2.3941095947
 H         13.9010341696        0.3312150091       -1.0271444208
 H         13.7501880773       -0.3141128467        1.3294484457
 H         11.5500740204       -0.6638192839        2.4036551358
 H          8.8527387424       -0.8618542271        2.9649778925
 H          6.3907808911       -0.8548784823        2.8650033959
 H          4.6645080762        1.4663653749       -0.4081805422
 H          2.2345117707        1.4828339487       -0.4680082727
 H          0.1297722938       -1.1749948336        1.2676198692
 H          0.1481564974        1.3634022083       -0.4312499016
 H         -1.8562993660        2.1983945072       -1.1816041194
 H         -4.3038776110        2.2200708675       -1.2606692939
 H         -8.5479040520       -1.7403936685       -1.7774802341
 H        -10.9998407416       -1.7321577808       -1.5617212511
 H        -12.0727571308       -0.5377756850        0.3129772729
 H        -10.6776981875        0.6295119278        1.9813883954
 H         -8.2291668383        0.6218333028        1.7659054214
 H         -4.8821894528       -1.1483849136       -2.0286248660
 H         -3.9451054571       -3.3590447490       -2.5548380581
 H         -4.7073833786       -5.3550522937       -1.3190722061
 H         -6.4269369856       -5.1267343338        0.4369665320
 H         -7.3642574187       -2.9130472104        0.9653419449
 H         -7.9424268493        1.6382730733       -1.5667869325
 H         -8.9053685045        3.8932121910       -1.3869759541
 H         -8.1101712546        5.4448742842        0.3599760724
 H         -6.3305144556        4.7322930609        1.9146948588
 H         -5.3642150759        2.4755470710        1.7326686228
 H         -4.4139829614       -1.1493491886        1.3603749746
 H         -1.9811423679       -1.1753860930        1.4470802453
 H          2.1580624362       -2.0809218019        1.8972501586
 H          4.6032497323       -2.1001714652        1.9387148923
 H          6.4726096441        0.2191265698       -1.2742477840
