  52
        -75.43194214
 C         -5.6563426314        1.6028950475        0.1171298705
 C         -4.9525260571        2.3216919367       -0.8339571245
 C         -3.5710117922        2.2690684483       -0.8611215532
 C         -2.8741121571        1.4887910198        0.0568768832
 C         -1.4011407539        1.4485382683        0.0192889843
 C         -0.6917564938        2.6449474133        0.0135254365
 C          0.6878031565        2.6456400923        0.0092013638
 C          1.3976847947        1.4497294697       -0.0056646631
 C          2.8705043630        1.4901685377       -0.0523083212
 C          3.5768058219        0.7959787672       -1.0303991696
 C          4.9570224483        0.8547118564       -1.0711762590
 C          5.6516608418        1.6044378607       -0.1364339823
 C          4.9571131272        2.3048322117        0.8351610631
 C          3.5758337196        2.2529505633        0.8738789998
 C          0.6981039122        0.2379398322       -0.0032849328
 C          1.4394150961       -1.0395631472       -0.0064124373
 C          2.3730990823       -1.3093897689        0.9890744170
 C          3.0716758694       -2.5020339776        0.9898069000
 C          2.8496482168       -3.4389941504       -0.0050211506
 C          1.9234844291       -3.1775377737       -1.0002683441
 C          1.2211840724       -1.9868963983       -1.0013929253
 C         -0.7004475329        0.2372930058        0.0120961033
 C         -1.4385075400       -1.0421579044        0.0102638581
 C         -2.3665728326       -1.3150000469       -0.9899031573
 C         -3.0604383698       -2.5104295154       -0.9945137029
 C         -2.8390701857       -3.4470100704        0.0013629586
 C         -1.9186873206       -3.1822300547        1.0015869026
 C         -1.2209548774       -1.9890421223        1.0061700607
 C         -3.5898958830        0.7772822810        1.0153806752
 C         -4.9704912136        0.8353371490        1.0437888073
 H         -6.7353786796        1.6428407554        0.1378756806
 H         -5.4816343857        2.9250516877       -1.5574405657
 H         -3.0230000170        2.8225383098       -1.6107968024
 H         -1.2334706932        3.5795353690        0.0318554634
 H          1.2290402491        3.5806227189       -0.0014779960
 H          3.0387455099        0.2171343862       -1.7662384776
 H          5.4936630568        0.3128124222       -1.8362897120
 H          6.7304583605        1.6445594529       -0.1666606321
 H          5.4934283535        2.8924120839        1.5659457097
 H          3.0346882643        2.7928603306        1.6386183427
 H          2.5436055559       -0.5816951737        1.7692722017
 H          3.7928300240       -2.7008846241        1.7691424558
 H          3.3971921903       -4.3699277834       -0.0048863983
 H          1.7477720903       -3.9041752296       -1.7799187388
 H          0.5043000814       -1.7825661925       -1.7835423783
 H         -2.5348652390       -0.5883387466       -1.7712285615
 H         -3.7755179114       -2.7127464701       -1.7783894040
 H         -3.3829077790       -4.3800446039       -0.0015711641
 H         -1.7451178264       -3.9076907553        1.7827541600
 H         -0.5090247602       -1.7816092590        1.7919399727
 H         -3.0594758094        0.1849425521        1.7458663665
 H         -5.5144072535        0.2779901140        1.7925732277
