  52
  -75.4319421400000       0.251065551679542      !
 C         -5.6563426314        1.6028950475        0.1171298705
 C         -4.9525260571        2.3216919367       -0.8339571245
 C         -3.5710117922        2.2690684483       -0.8611215532
 C         -2.8741121571        1.4887910198        0.0568768832
 C         -1.4011407539        1.4485382683        0.0192889843
 C         -0.6917564938        2.6449474133        0.0135254365
 C          0.6878031565        2.6456400923        0.0092013638
 C          1.3976847947        1.4497294697       -0.0056646631
 C          2.8705043630        1.4901685377       -0.0523083212
 C          3.5768058219        0.7959787672       -1.0303991696
 C          4.9570224483        0.8547118564       -1.0711762590
 C          5.6516608418        1.6044378607       -0.1364339823
 C          4.9571131272        2.3048322117        0.8351610631
 C          3.5758337196        2.2529505633        0.8738789998
 C          0.6981039122        0.2379398322       -0.0032849328
 C          1.4394150961       -1.0395631472       -0.0064124373
 C          2.3730990823       -1.3093897689        0.9890744170
 C          3.0716758694       -2.5020339776        0.9898069000
 C          2.8496482168       -3.4389941504       -0.0050211506
 C          1.9234844291       -3.1775377737       -1.0002683441
 C          1.2211840724       -1.9868963983       -1.0013929253
 C         -0.7004475329        0.2372930058        0.0120961033
 C         -1.4385075400       -1.0421579044        0.0102638581
 C         -2.3665728326       -1.3150000469       -0.9899031573
 C         -3.0604383698       -2.5104295154       -0.9945137029
 C         -2.8390701857       -3.4470100704        0.0013629586
 C         -1.9186873206       -3.1822300547        1.0015869026
 C         -1.2209548774       -1.9890421223        1.0061700607
 C         -3.5898958830        0.7772822810        1.0153806752
 C         -4.9704912136        0.8353371490        1.0437888073
 H         -6.7353786796        1.6428407554        0.1378756806
 H         -5.4816343857        2.9250516877       -1.5574405657
 H         -3.0230000170        2.8225383098       -1.6107968024
 H         -1.2334706932        3.5795353690        0.0318554634
 H          1.2290402491        3.5806227189       -0.0014779960
 H          3.0387455099        0.2171343862       -1.7662384776
 H          5.4936630568        0.3128124222       -1.8362897120
 H          6.7304583605        1.6445594529       -0.1666606321
 H          5.4934283535        2.8924120839        1.5659457097
 H          3.0346882643        2.7928603306        1.6386183427
 H          2.5436055559       -0.5816951737        1.7692722017
 H          3.7928300240       -2.7008846241        1.7691424558
 H          3.3971921903       -4.3699277834       -0.0048863983
 H          1.7477720903       -3.9041752296       -1.7799187388
 H          0.5043000814       -1.7825661925       -1.7835423783
 H         -2.5348652390       -0.5883387466       -1.7712285615
 H         -3.7755179114       -2.7127464701       -1.7783894040
 H         -3.3829077790       -4.3800446039       -0.0015711641
 H         -1.7451178264       -3.9076907553        1.7827541600
 H         -0.5090247602       -1.7816092590        1.7919399727
 H         -3.0594758094        0.1849425521        1.7458663665
 H         -5.5144072535        0.2779901140        1.7925732277
  52
  -75.4319377300000       0.249896648866041      !
 C         -5.6532537305        1.5945748816        0.2062024901
 C         -5.0119800138        0.8421806234       -0.7638690243
 C         -3.6316463801        0.7879343578       -0.8035108438
 C         -2.8714337095        1.4888905444        0.1283621696
 C         -1.3984851690        1.4515860930        0.0871560186
 C         -0.6902172112        2.6482716668        0.0608008804
 C          0.6869888503        2.6492476912       -0.0206088704
 C          1.3966592609        1.4536842738       -0.0636872069
 C          2.8689493147        1.4941500856       -0.1202970597
 C          3.5061194964        2.2799578083       -1.0762017347
 C          4.8865785610        2.3295873020       -1.1393155139
 C          5.6495331267        1.6018553529       -0.2421257708
 C          5.0240224763        0.8293079328        0.7223233797
 C          3.6444580061        0.7747757858        0.7844943686
 C          0.6980046992        0.2416240446       -0.0298343166
 C          1.4350369948       -1.0372444479       -0.0858525886
 C          1.2852956139       -1.9894598136        0.9172767347
 C          1.9798807982       -3.1830792731        0.8582864347
 C          2.8294460139       -3.4427489216       -0.2038594775
 C          2.9834151770       -2.5006047517       -1.2067977442
 C          2.2928062282       -1.3047189840       -1.1481039026
 C         -0.6986044404        0.2406816136        0.0441463092
 C         -1.4347202945       -1.0389928142        0.0917604697
 C         -1.2792637960       -1.9886836922       -0.9128593577
 C         -1.9696651038       -3.1848925385       -0.8578703692
 C         -2.8211832280       -3.4495593418        0.2014633228
 C         -2.9823030337       -2.5092343323        1.2049325685
 C         -2.2957207402       -1.3108640332        1.1503174726
 C         -3.5238924173        2.2542299133        1.0902241992
 C         -4.9053425571        2.3020563043        1.1318280029
 H         -6.7320783091        1.6315863877        0.2387030530
 H         -5.5905716917        0.2946683218       -1.4935362667
 H         -3.1356032384        0.2073668767       -1.5667983285
 H         -1.2319039950        3.5827438646        0.0852798804
 H          1.2276706853        3.5845101185       -0.0334525909
 H          2.9116864877        2.8396638056       -1.7846610657
 H          5.3685401416        2.9369640266       -1.8917286442
 H          6.7276750697        1.6387400953       -0.2924948948
 H          5.6144071570        0.2655227777        1.4297915516
 H          3.1617607435        0.1781080035        1.5438401815
 H          0.6286406627       -1.7863268330        1.7507570480
 H          1.8577535810       -3.9137868980        1.6445876001
 H          3.3703419422       -4.3764147266       -0.2495291271
 H          3.6443926481       -2.6981173282       -2.0381873908
 H          2.4099363981       -0.5726523989       -1.9341778099
 H         -0.6209132267       -1.7819900946       -1.7440870136
 H         -1.8424660585       -3.9137926709       -1.6450043545
 H         -3.3583482555       -4.3854477846        0.2443853082
 H         -3.6455471116       -2.7102666746        2.0336808390
 H         -2.4180728998       -0.5805285130        1.9371722094
 H         -2.9411331596        2.7994729613        1.8194363218
 H         -5.4000044683        2.8930391483        1.8890520756
  52
  -75.4319372000000       0.249756535305677      !
 C         -5.6475899783        1.5879540002        0.3589731007
 C         -5.0105672376        0.9157968129       -0.6709691205
 C         -3.6305355828        0.8604862795       -0.7178143404
 C         -2.8662787979        1.4792047961        0.2674306594
 C         -1.3936306497        1.4410717576        0.2212686423
 C         -0.6813895366        2.6329179960        0.3034647036
 C          0.6957265128        2.6372453351        0.2200784441
 C          1.4014796382        1.4486000998        0.0663408093
 C          2.8737746929        1.4902920908        0.0085366120
 C          3.6507569117        0.6966667070        0.8474037445
 C          5.0303005676        0.7558644728        0.7865508532
 C          5.6538749682        1.6058948514       -0.1117399718
 C          4.8892239660        2.4059110507       -0.9436416702
 C          3.5089098601        2.3524314311       -0.8805846387
 C          0.6991680239        0.2407054911       -0.0084584514
 C          1.4320827918       -1.0303717502       -0.1795357439
 C          1.2813926570       -2.0663153483        0.7366335299
 C          1.9705913110       -3.2529290303        0.5707661878
 C          2.8155570412       -3.4217432189       -0.5131427484
 C          2.9706603138       -2.3957193442       -1.4298473678
 C          2.2855193381       -1.2067458815       -1.2639495142
 C         -0.6972268722        0.2371281382        0.0673254941
 C         -1.4364911292       -1.0398505442       -0.0001959777
 C         -1.2897687318       -1.8919293059       -1.0899129925
 C         -1.9853001569       -3.0853204069       -1.1435217526
 C         -2.8323421592       -3.4448946637       -0.1088884410
 C         -2.9837786733       -2.6024399766        0.9795501773
 C         -2.2927874080       -1.4066376563        1.0333058623
 C         -3.5146891557        2.1645788700        1.2906658909
 C         -4.8957468142        2.2140857786        1.3384896171
 H         -6.7262201599        1.6264080725        0.3961529219
 H         -5.5923452496        0.4324486143       -1.4422071394
 H         -3.1380140371        0.3439102713       -1.5279258675
 H         -1.2197013033        3.5631089394        0.4138179148
 H          1.2392676202        3.5682426539        0.2912961927
 H          3.1694727896        0.0395388362        1.5560912093
 H          5.6223600343        0.1356648137        1.4436532582
 H          6.7319825689        1.6461375220       -0.1615409746
 H          5.3696580415        3.0721243795       -1.6455369060
 H          2.9125526515        2.9683114022       -1.5391396088
 H          0.6282747884       -1.9342843310        1.5870394275
 H          1.8483218505       -4.0491355703        1.2906185026
 H          3.3524985930       -4.3498373740       -0.6426964069
 H          3.6283902158       -2.5224034793       -2.2774250564
 H          2.4037086507       -0.4089989239       -1.9828408175
 H         -0.6344923426       -1.6109020122       -1.9015823413
 H         -1.8651271164       -3.7378859612       -1.9960070700
 H         -3.3731939901       -4.3788038476       -0.1506086923
 H         -3.6432582377       -2.8782022313        1.7895673753
 H         -2.4089497016       -0.7518118650        1.8847418195
 H         -2.9286503473        2.6458598967        2.0609977857
 H         -5.3872087113        2.7442506872        2.1414562502
  52
  -75.4319354000000       0.249281264148741      !
 C         -5.6574999387        1.5969900011        0.0915649755
 C         -4.9484141555        2.3163780005       -0.8554077958
 C         -3.5666480299        2.2684112841       -0.8715104691
 C         -2.8745258067        1.4922551285        0.0537501695
 C         -1.4013678994        1.4530906620        0.0230395251
 C         -0.6914917712        2.6492861240        0.0179535921
 C          0.6881229741        2.6495638549        0.0153926177
 C          1.3981536524        1.4536497937       -0.0027055685
 C          2.8709223900        1.4933206926       -0.0475993535
 C          3.5749478834        2.2600320601        0.8763144904
 C          4.9564400060        2.3093120420        0.8419493041
 C          5.6530334597        1.6009897975       -0.1224001693
 C          4.9598565478        0.8476118184       -1.0552100181
 C          3.5792984015        0.7927259046       -1.0195890213
 C          0.6978812319        0.2422837095       -0.0023309962
 C          1.4352328067       -1.0374745364       -0.0162951592
 C          2.3706888060       -1.3206286700        0.9737732324
 C          3.0622936017       -2.5173977958        0.9620412495
 C          2.8318427158       -3.4448045058       -0.0400266867
 C          1.9044602282       -3.1695070682       -1.0306567653
 C          1.2090692683       -1.9749948692       -1.0190655774
 C         -0.7005932283        0.2420255233        0.0169878260
 C         -1.4354189470       -1.0393331448        0.0241966044
 C         -2.3630655594       -1.3249223755       -0.9723373966
 C         -3.0488109407       -2.5251456354       -0.9671295326
 C         -2.8204455912       -3.4527662022        0.0351547994
 C         -1.9014726837       -3.1745070511        1.0328827524
 C         -1.2115049019       -1.9769207146        1.0274658326
 C         -3.5954763300        0.7811927155        1.0085810132
 C         -4.9765751068        0.8344531914        1.0258113707
 H         -6.7368006955        1.6330992245        0.1027700413
 H         -5.4740129179        2.9157482097       -1.5846945758
 H         -3.0145997945        2.8215730685       -1.6183994003
 H         -1.2328664716        3.5840978621        0.0349914684
 H          1.2293071379        3.5845749455        0.0060259793
 H          3.0327362529        2.8043842030        1.6368042852
 H          5.4911323471        2.9001901514        1.5716549799
 H          6.7320709705        1.6376157631       -0.1483971515
 H          5.4980328365        0.2998673824       -1.8150379668
 H          3.0430046189        0.2117530938       -1.7548141038
 H          2.5483975106       -0.6006292261        1.7595508347
 H          3.7842806432       -2.7273179443        1.7377350706
 H          3.3739777613       -4.3788235034       -0.0489885775
 H          1.7216851521       -3.8881911512       -1.8163155182
 H          0.4915935719       -1.7595857626       -1.7974477927
 H         -2.5386908542       -0.6040376142       -1.7578445768
 H         -3.7644287176       -2.7376913980       -1.7480462700
 H         -3.3575765272       -4.3897328037        0.0392235163
 H         -1.7214849868       -3.8936701340        1.8187247736
 H         -0.4999350335       -1.7585432329        1.8105258223
 H         -3.0689662493        0.1927430108        1.7449228753
 H         -5.5241430506        0.2778165461        1.7723035899
