  93
       -143.15387061
 C          8.2317262455        0.2464898621       -1.7329475521
 C          7.6041495821       -0.0978433382       -0.3699588344
 C          8.6308838330        0.1113342319        0.7583075039
 C          6.4268409670        0.8260458125       -0.1236512392
 C          6.6367810423        2.1976187851       -0.0742507311
 C          5.6141292986        3.0890954173        0.1909135252
 C          4.3426359555        2.6041893296        0.4356886995
 C          4.1055585488        1.2467770101        0.3856060424
 C          5.1306066995        0.3443154735        0.0861761672
 N          4.8609695713       -1.0176853127        0.0330432922
 C          3.5322987152       -1.4559860795        0.2478635132
 C          3.1873388860       -2.1035816225        1.4306770901
 C          1.8775771016       -2.4773303941        1.6564219697
 C          0.8912860413       -2.1846206925        0.7180563405
 C         -0.5263125631       -2.5026238923        1.0244467514
 O         -0.8670070824       -3.5255473854        1.5783565060
 C         -1.5040722541       -1.4489645458        0.6359718847
 C         -2.8060948577       -1.8180511307        0.3202102722
 C         -3.7457225703       -0.8465154174       -0.0109529465
 N         -5.0582500278       -1.2132852887       -0.3134241675
 C         -5.8065021377       -0.7639698974       -1.3870206369
 C         -5.4421966291        0.0671931679       -2.4361967659
 C         -6.3889745317        0.3351377893       -3.4070303440
 C         -7.6668082359       -0.2151081656       -3.3490012475
 C         -8.0261698593       -1.0657265107       -2.3226462002
 C         -7.0920104568       -1.3488804534       -1.3354696034
 C         -7.1160514412       -2.1854970643       -0.1676881494
 C         -8.0929170130       -2.9854660941        0.4102788319
 C         -7.7910282876       -3.6571689033        1.5778850115
 C         -6.5402312003       -3.5252211445        2.1761083767
 C         -5.5525218043       -2.7344215745        1.6199664645
 C         -5.8417364762       -2.0784738861        0.4324334053
 C         -3.3733173486        0.4953000858       -0.0342429403
 C         -2.0735111582        0.8672145317        0.2953632813
 N         -1.7013521082        2.2143914051        0.2921912908
 C         -0.5458011489        2.7292025962       -0.2697364569
 C          0.4411975705        2.0925880541       -1.0082521866
 C          1.4901636044        2.8565408023       -1.4825921314
 C          1.5582854891        4.2265533982       -1.2413994084
 C          0.5647589112        4.8716147940       -0.5325642312
 C         -0.4995044162        4.1234364218       -0.0462690840
 C         -1.6842396016        4.4593889360        0.6933643944
 C         -2.1782205683        5.6501226519        1.2091173334
 C         -3.3654434044        5.6236955008        1.9128945185
 C         -4.0470453354        4.4271170879        2.1202297885
 C         -3.5753433835        3.2299000934        1.6157087656
 C         -2.3984756851        3.2546003662        0.8819607817
 C         -1.1411229336       -0.1062397713        0.6400933325
 C          1.2486315359       -1.5791878336       -0.4856421855
 C          2.5606115426       -1.2243936320       -0.7224116083
 C          5.8590604421       -1.9537571079       -0.2014286539
 C          5.5295763239       -3.3093411708       -0.2899335723
 C          6.5003115955       -4.2628981905       -0.5125140464
 C          7.8207231241       -3.8795146572       -0.6619825759
 C          8.1441696087       -2.5368295060       -0.6060744217
 C          7.1868854205       -1.5558241256       -0.3849414775
 H          9.0951993085       -0.3817292870       -1.9330651208
 H          7.5027865811        0.0900010765       -2.5260586715
 H          8.5527833659        1.2840102905       -1.7619905689
 H          8.1782690832       -0.1286528429        1.7187469419
 H          9.4976600839       -0.5285691438        0.6182325845
 H          8.9705094551        1.1428956459        0.7882964354
 H          7.6290553838        2.5878479765       -0.2428614691
 H          5.8127429005        4.1495093237        0.2197926624
 H          3.5303135597        3.2768897371        0.6661749993
 H          3.1104199789        0.8832755896        0.5896234727
 H          3.9509603467       -2.3009414211        2.1681694487
 H          1.5948187663       -2.9704820712        2.5741898900
 H         -3.0699555884       -2.8641422173        0.3146079587
 H         -4.4485135917        0.4833575459       -2.5074218348
 H         -6.1293462945        0.9832964762       -4.2309686579
 H         -8.3791653341        0.0212247829       -4.1252654966
 H         -9.0100040214       -1.5084189967       -2.2864522425
 H         -9.0674654558       -3.0729983995       -0.0457158531
 H         -8.5346047658       -4.2873915330        2.0424259370
 H         -6.3366908461       -4.0502617898        3.0974214406
 H         -4.5940375130       -2.6292238792        2.1045619097
 H         -4.0980579975        1.2497114178       -0.2980166157
 H          0.3915147997        1.0358603665       -1.2185118865
 H          2.2761152425        2.3821025720       -2.0509804997
 H          2.3980185490        4.7868811934       -1.6242489910
 H          0.6069633851        5.9363828017       -0.3599974720
 H         -1.6382623495        6.5735419831        1.0644578263
 H         -3.7692506195        6.5386579155        2.3197207712
 H         -4.9634404993        4.4328595115        2.6914624292
 H         -4.1032276721        2.3074520471        1.8044315318
 H         -0.1509056846        0.1923042045        0.9470336377
 H          0.4960303228       -1.4091090320       -1.2420811042
 H          2.8440270575       -0.7490177243       -1.6497004272
 H          4.5000867836       -3.6171323147       -0.1896957908
 H          6.2212274957       -5.3041944646       -0.5723119206
 H          8.5908946026       -4.6162167556       -0.8317533373
 H          9.1758965310       -2.2497464919       -0.7419042745
