  54
  -88.9597808579000       0.358964259201559      !
 N          5.9444039900        1.8179527849        0.8809235656
 C          4.9600814110        1.2666707914        0.6293222401
 C          3.7627934848        0.6445417929        0.3030834179
 C          2.5485570482        1.2687275384        0.5738486351
 C          1.3422385723        0.6500608586        0.3186550237
 N          0.1375731230        1.2337763926        0.6939879044
 C         -0.3047766286        2.4843873736        0.3091667067
 C          0.3721916507        3.4917379490       -0.3669273153
 C         -0.3287703760        4.6392518181       -0.6862761831
 C         -1.6734298418        4.7848679590       -0.3492768114
 C         -2.3601213419        3.7759110529        0.3030482551
 C         -1.6785494857        2.6158012120        0.6343169753
 C         -2.0687627009        1.3883284685        1.2724281026
 C         -3.2584098031        0.9220520698        1.8084831158
 C         -3.2715493647       -0.3280541694        2.4033744094
 C         -2.1095904034       -1.0882739274        2.5057352891
 C         -0.9119891614       -0.6424544281        1.9774004385
 C         -0.9116977311        0.5754220779        1.3119491929
 C          1.3340841397       -0.6718749892       -0.3095256833
 N          0.1221254967       -1.2389347869       -0.6882388350
 C         -0.3426905165       -2.4793193594       -0.2980904124
 C          0.3122840468       -3.4895084435        0.3952100629
 C         -0.4105484168       -4.6202183006        0.7245132128
 C         -1.7548247949       -4.7470509538        0.3790955214
 C         -2.4187831552       -3.7363482387       -0.2936750162
 C         -1.7152173112       -2.5924272612       -0.6346639073
 C         -2.0803104826       -1.3645330196       -1.2868283330
 C         -3.2566620111       -0.8860436490       -1.8411899852
 C         -3.2457284285        0.3608631682       -2.4428360369
 C         -2.0735059545        1.1071328420       -2.5312194887
 C         -0.8884285371        0.6485267765       -1.9858923518
 C         -0.9116599240       -0.5680045255       -1.3182908745
 C          2.5318343065       -1.3061991725       -0.5654222664
 C          3.7543741015       -0.6960490532       -0.2986430852
 C          4.9436355318       -1.3304157850       -0.6302081603
 N          5.9180936747       -1.8919528162       -0.8971576796
 H          2.5595268698        2.2335915833        1.0608362380
 H          1.4100539437        3.3864736609       -0.6434261185
 H          0.1763301491        5.4379291580       -1.2075179213
 H         -2.1859474960        5.6982878803       -0.6103554082
 H         -3.4062416048        3.8833962750        0.5447612829
 H         -4.1522885519        1.5248624954        1.7658655672
 H         -4.1909924904       -0.7129324641        2.8171757856
 H         -2.1392724091       -2.0415543506        3.0107336190
 H         -0.0066877386       -1.2188178993        2.0937504304
 H          1.3494774400       -3.3975204701        0.6781638190
 H          0.0760643806       -5.4196703052        1.2618571755
 H         -2.2853266618       -5.6468783628        0.6502983472
 H         -3.4646669976       -3.8293096573       -0.5420113031
 H         -4.1587392945       -1.4772530604       -1.8075718130
 H         -4.1542350404        0.7544526502       -2.8722372579
 H         -2.0849453807        2.0591152427       -3.0395728145
 H          0.0251562974        1.2141385654       -2.0911275472
 H          2.5293666914       -2.2718970213       -1.0509998026
  54
  -88.9591693211000       0.187935297218264      !
 N          5.9345197086        0.9854872844        1.7866551377
 C          4.9538839121        0.6929710127        1.2494044924
 C          3.7583493321        0.3274922852        0.6463402327
 C          2.5417009605        0.6596908691        1.2356714215
 C          1.3383946899        0.3632274203        0.6300988865
 N          0.1325178941        0.8002481398        1.1664704540
 C         -0.9002060884        1.3781919830        0.4482562412
 C         -0.8807586535        1.9318043097       -0.8242627389
 C         -2.0633794454        2.4487346175       -1.3207279093
 C         -3.2292789913        2.4445983970       -0.5596320921
 C         -3.2354281193        1.9594099336        0.7370542687
 C         -2.0615924169        1.4349057341        1.2539241514
 C         -1.6925960168        0.8952960743        2.5341929730
 C         -2.3887701885        0.6734107285        3.7115477832
 C         -1.7226742708        0.0917744595        4.7760410188
 C         -0.3840190410       -0.2817214846        4.6704523542
 C          0.3313614763       -0.0707370330        3.5070069992
 C         -0.3251620080        0.5326696135        2.4415421847
 C          1.3341874056       -0.3764468338       -0.6328961171
 N          0.1229855465       -0.7974504459       -1.1700119255
 C         -0.9171935309       -1.3604020564       -0.4507874017
 C         -0.9035485470       -1.9145647421        0.8215450950
 C         -2.0926553679       -2.4143953704        1.3198294858
 C         -3.2595419444       -2.3931598670        0.5605534538
 C         -3.2605050391       -1.9085621597       -0.7363392259
 C         -2.0799611513       -1.4014507335       -1.2552618492
 C         -1.7039661082       -0.8694301463       -2.5366897073
 C         -2.3971058532       -0.6420392334       -3.7147649033
 C         -1.7230107352       -0.0737925492       -4.7814711666
 C         -0.3792968854        0.2813924518       -4.6772487869
 C          0.3332043378        0.0646610955       -3.5130252648
 C         -0.3315095276       -0.5257866831       -2.4454804830
 C          2.5344980045       -0.6930165607       -1.2345625473
 C          3.7544161582       -0.3829352889       -0.6402455329
 C          4.9459398697       -0.7724834592       -1.2365339383
 N          5.9237459737       -1.0856395131       -1.7672545701
 H          2.5494157822        1.2257962772        2.1564910383
 H          0.0284381840        1.9741699046       -1.4048097995
 H         -2.0778128950        2.8686116909       -2.3148240131
 H         -4.1360946662        2.8492426681       -0.9825985212
 H         -4.1317107894        1.9929014971        1.3369699985
 H         -3.4306779239        0.9430241778        3.7898826436
 H         -2.2472462282       -0.0853248091        5.7027025105
 H          0.1043395022       -0.7466618410        5.5131226871
 H          1.3642054322       -0.3747126759        3.4332584131
 H          0.0060881505       -1.9702312012        1.4001995754
 H         -2.1113727891       -2.8341227579        2.3138894536
 H         -4.1714495924       -2.7842444402        0.9852104064
 H         -4.1581264376       -1.9293306929       -1.3347917250
 H         -3.4426409846       -0.8974691445       -3.7921369310
 H         -2.2450883479        0.1068330432       -5.7088720185
 H          0.1154794148        0.7360120172       -5.5217926731
 H          1.3703004822        0.3541182939       -3.4406258617
 H          2.5358397391       -1.2590896250       -2.1554168592
  54
  -88.9590499934000       0.165641494839831      !
 N          5.9579771665        1.8589196146        0.7824327536
 C          4.9737111861        1.2953872701        0.5593858056
 C          3.7748054579        0.6577815268        0.2718795801
 C          2.5614753529        1.2927150452        0.5251081335
 C          1.3583767351        0.6587198580        0.3001889926
 N          0.1468369644        1.2178536312        0.6933732912
 C         -0.3590749211        2.4370892691        0.2931475584
 C          0.2547582766        3.4541816728       -0.4273692099
 C         -0.5061952842        4.5580787656       -0.7615424076
 C         -1.8470284747        4.6529099605       -0.3926993764
 C         -2.4687289587        3.6370378555        0.3119809374
 C         -1.7268782676        2.5196053669        0.6588160315
 C         -2.0433890424        1.2959419735        1.3441035213
 C         -3.1900726299        0.7983340416        1.9425998763
 C         -3.1279442966       -0.4339221841        2.5710056082
 C         -1.9348516112       -1.1476560613        2.6399591677
 C         -0.7788560884       -0.6699478004        2.0499293218
 C         -0.8537568956        0.5321166676        1.3610959500
 C          1.3495077278       -0.6782455123       -0.2966273755
 N          0.1310286393       -1.2198920445       -0.6927371573
 C         -0.3934626823       -2.4316685316       -0.2938069908
 C          0.2037644436       -3.4574412606        0.4283646919
 C         -0.5738106361       -4.5503723609        0.7602599029
 C         -1.9147439380       -4.6260982853        0.3874920683
 C         -2.5199413733       -3.6013421616       -0.3187176146
 C         -1.7612430190       -2.4946296753       -0.6633789613
 C         -2.0583924551       -1.2663847403       -1.3491406777
 C         -3.1962254400       -0.7522190007       -1.9504790178
 C         -3.1146605611        0.4789775555       -2.5787404623
 C         -1.9112060592        1.1753292268       -2.6446942806
 C         -0.7637181200        0.6809926422       -2.0516890762
 C         -0.8577862039       -0.5198784092       -1.3631166113
 C          2.5439152255       -1.3294691989       -0.5185372517
 C          3.7656042462       -0.7119320685       -0.2625027229
 C          4.9559306959       -1.3666845833       -0.5472052063
 N          5.9325616633       -1.9441619750       -0.7679212702
 H          2.5730191271        2.2756671304        0.9745684382
 H          1.2896612918        3.3867353612       -0.7257374277
 H         -0.0531036682        5.3619899917       -1.3211287210
 H         -2.4085053021        5.5322368582       -0.6695752895
 H         -3.5112862181        3.7064120043        0.5813840123
 H         -4.1088582493        1.3637386243        1.9222203867
 H         -4.0124852783       -0.8410663999        3.0364401942
 H         -1.9062875603       -2.0881642662        3.1683515238
 H          0.1533140487       -1.2069697958        2.1399317038
 H          1.2389518621       -3.4051474610        0.7288460478
 H         -0.1335989849       -5.3611073589        1.3202941118
 H         -2.4895412998       -5.4972576430        0.6628814043
 H         -3.5629068405       -3.6554121222       -0.5901664788
 H         -4.1229565457       -1.3046253187       -1.9332182920
 H         -3.9918044285        0.8984191061       -3.0472665563
 H         -1.8675652327        2.1150384691       -3.1734565614
 H          0.1763152728        1.2045958091       -2.1390849075
 H          2.5424972656       -2.3125567656       -0.9678715619
  54
  -88.9589387880000       0.147252500342000      !
 N          5.9218964041        1.1041174813        1.7170693720
 C          4.9429204802        0.7682869313        1.2023883111
 C          3.7475450626        0.3611895762        0.6259518342
 C          2.5307953539        0.7087692173        1.2048034792
 C          1.3245296287        0.3793229618        0.6206942271
 N          0.1242740463        0.8108806580        1.1734383718
 C         -0.9420548689        1.3495732348        0.4754802469
 C         -0.9775910350        1.8699505105       -0.8109706283
 C         -2.1883412016        2.3423554055       -1.2825481082
 C         -3.3296102212        2.3296634201       -0.4846121202
 C         -3.2811238271        1.8840850749        0.8251009193
 C         -2.0780191119        1.4048489604        1.3178139922
 C         -1.6561624189        0.9101525495        2.5997175343
 C         -2.3076619534        0.7139741830        3.8069681874
 C         -1.5954246381        0.1769777991        4.8651227035
 C         -0.2559048873       -0.1802017662        4.7232517302
 C          0.4151948989        0.0061391028        3.5292903328
 C         -0.2864571153        0.5695497652        2.4711050218
 C          1.3196661521       -0.3981954325       -0.6189051583
 N          0.1141120857       -0.8123118341       -1.1732562112
 C         -0.9608113151       -1.3356046908       -0.4768558241
 C         -1.0056824610       -1.8554788839        0.8095083069
 C         -2.2238278779       -2.3102318008        1.2793827158
 C         -3.3636065759       -2.2809717336        0.4797929136
 C         -3.3067099539       -1.8362515902       -0.8298457046
 C         -2.0961466338       -1.3746589713       -1.3208480702
 C         -1.6652957085       -0.8864966582       -2.6021916827
 C         -2.3119724567       -0.6813543426       -3.8104160916
 C         -1.5903886784       -0.1551712900       -4.8677141424
 C         -0.2462998439        0.1835079550       -4.7237672585
 C          0.4201123311       -0.0118241260       -3.5286826979
 C         -0.2912229773       -0.5649760955       -2.4714524431
 C          2.5217913839       -0.7452193026       -1.2014129944
 C          3.7427100750       -0.4156382794       -0.6207031101
 C          4.9327014846       -0.8414692726       -1.1950619446
 N          5.9094977979       -1.1877530169       -1.7077904246
 H          2.5382051483        1.3126751363        2.1012545313
 H         -0.0895008181        1.9181268209       -1.4226333267
 H         -2.2454861370        2.7324478731       -2.2870791504
 H         -4.2607273572        2.6943807255       -0.8906029042
 H         -4.1584454867        1.9114098706        1.4527652397
 H         -3.3502500035        0.9708252972        3.9137851721
 H         -2.0837443473        0.0231806533        5.8153584202
 H          0.2696563877       -0.6108222912        5.5616355239
 H          1.4491311811       -0.2862806499        3.4289675261
 H         -0.1193039650       -1.9162210421        1.4225521638
 H         -2.2882129199       -2.6990152462        2.2840012899
 H         -4.3003271427       -2.6328628778        0.8841805905
 H         -4.1833330978       -1.8508971078       -1.4587942145
 H         -3.3583000510       -0.9218019756       -3.9182574055
 H         -2.0753851263        0.0067005692       -5.8183687697
 H          0.2863516491        0.6075633683       -5.5611284991
 H          1.4583915787        0.2647089933       -3.4272285442
 H          2.5216324484       -1.3501327242       -2.0973029093
  54
  -88.9586375559000       0.107059692027813      !
 N          5.9140679572        1.7741791407        1.0148045696
 C          4.9418989103        1.2275888937        0.7111414993
 C          3.7467422638        0.6242646757        0.3436505393
 C          2.5303664230        1.2334914513        0.6355073969
 C          1.3219370095        0.6349582773        0.3396197600
 N          0.1253981960        1.2475614325        0.6944154083
 C         -0.2463952251        2.5258164572        0.3176578589
 C          0.4966667875        3.5089366384       -0.3230674570
 C         -0.1382703500        4.6949268172       -0.6413565849
 C         -1.4830331845        4.9004327336       -0.3395989853
 C         -2.2368951599        3.9137039789        0.2712560078
 C         -1.6219148598        2.7158690920        0.6000345345
 C         -2.0906308645        1.4951399848        1.1962425768
 C         -3.3231040371        1.0712739993        1.6655721343
 C         -3.4202467245       -0.1917606749        2.2238392475
 C         -2.2985890412       -1.0061661988        2.3592541099
 C         -1.0593556806       -0.6036862853        1.8970366928
 C         -0.9735535619        0.6276415589        1.2611455989
 C          1.3157476901       -0.6649601771       -0.3318318778
 N          0.1124615111       -1.2604603643       -0.6929567816
 C         -0.2849624288       -2.5313293376       -0.3176735592
 C          0.4385133658       -3.5311464300        0.3193656305
 C         -0.2207259708       -4.7041696038        0.6368062180
 C         -1.5701826399       -4.8805836257        0.3377732358
 C         -2.3039131364       -3.8776327052       -0.2713232140
 C         -1.6643111714       -2.6928937280       -0.6002467568
 C         -2.1076476702       -1.4632549368       -1.1977757046
 C         -3.3301684817       -1.0140636950       -1.6697793232
 C         -3.3993596321        0.2494432279       -2.2310510533
 C         -2.2603748607        1.0394955487       -2.3670784369
 C         -1.0309026465        0.6118032889       -1.9017650485
 C         -0.9729294051       -0.6192716029       -1.2623394707
 C          2.5183633870       -1.2757279108       -0.6259404315
 C          3.7403447858       -0.6763311364       -0.3377121223
 C          4.9296959762       -1.2852465154       -0.7148623677
 N          5.9138439250       -1.8208690111       -0.9988617524
 H          2.5380008763        2.1742384506        1.1677564159
 H          1.5346692868        3.3573862705       -0.5757305175
 H          0.4199774330        5.4756341196       -1.1347117321
 H         -1.9425732238        5.8424542876       -0.5975912374
 H         -3.2839399459        4.0668272575        0.4823602803
 H         -4.1860858966        1.7154964318        1.5980759713
 H         -4.3748403293       -0.5450379780        2.5826664409
 H         -2.3943493731       -1.9689478129        2.8372477227
 H         -0.1887432708       -1.2267048971        2.0360549526
 H          1.4802607576       -3.4024052209        0.5692310436
 H          0.3221578183       -5.4976436288        1.1269563721
 H         -2.0494045047       -5.8127174223        0.5959256532
 H         -3.3542559113       -4.0084199381       -0.4810915287
 H         -4.2070268687       -1.6391310811       -1.6015517724
 H         -4.3456856662        0.6224791285       -2.5917255700
 H         -2.3346213094        2.0025227427       -2.8483699751
 H         -0.1463948330        1.2148438581       -2.0411653526
 H          2.5174412840       -2.2168072775       -1.1576295588
  54
  -88.9575295920000       3.314675637053215E-002 !
 N          5.8379128432        1.6628797768        1.1916510311
 C          4.8620762497        1.1599121561        0.8304971086
 C          3.6702371989        0.5978553670        0.3932954079
 C          2.4535741552        1.2012241343        0.6890589511
 C          1.2388277613        0.6345842754        0.3483596111
 N          0.0663831336        1.3090809275        0.6661188051
 C         -0.1631470426        2.6392595985        0.3445056770
 C          0.6685585451        3.5508139395       -0.2918023951
 C          0.1724767789        4.8188408903       -0.5368200641
 C         -1.1235361603        5.1727558716       -0.1709503221
 C         -1.9715149442        4.2555043218        0.4256910029
 C         -1.4954951388        2.9785927705        0.6802141564
 C         -2.0892165611        1.7958165087        1.2398649623
 C         -3.3488854610        1.5111487360        1.7410048773
 C         -3.5892264783        0.2466243678        2.2481785985
 C         -2.5777718190       -0.7110609215        2.2973462182
 C         -1.3143192251       -0.4485493063        1.8043484342
 C         -1.0842592907        0.7959737829        1.2305015284
 C          1.2308158500       -0.6555732218       -0.3403175513
 N          0.0498831462       -1.3117259821       -0.6636146833
 C         -0.1981867072       -2.6427478720       -0.3585231474
 C          0.6227758094       -3.5778045304        0.2573871665
 C          0.1109379780       -4.8441120769        0.4780262138
 C         -1.1908495673       -5.1737413969        0.1101689432
 C         -2.0291969948       -4.2328067842       -0.4626819471
 C         -1.5368214679       -2.9576861761       -0.6937586502
 C         -2.1156467963       -1.7587917761       -1.2340949404
 C         -3.3742640940       -1.4478587024       -1.7223363608
 C         -3.5969359090       -0.1746937128       -2.2156306413
 C         -2.5681034565        0.7641241290       -2.2685036636
 C         -1.3055486081        0.4749307980       -1.7884352632
 C         -1.0944509762       -0.7757193715       -1.2205777512
 C          2.4395831269       -1.2370685868       -0.6784556405
 C          3.6627757658       -0.6503852796       -0.3780494280
 C          4.8473905902       -1.2261160210       -0.8178515508
 N          5.8322630889       -1.7429521198       -1.1342940535
 H          2.4597954561        2.1196484955        1.2592611557
 H          1.6691140329        3.2871546750       -0.5979880712
 H          0.8049189910        5.5457446552       -1.0227649543
 H         -1.4726679685        6.1746024313       -0.3696609608
 H         -2.9847426854        4.5233659496        0.6826412972
 H         -4.1219334754        2.2640576319        1.7371625874
 H         -4.5676045692        0.0016260484        2.6323289435
 H         -2.7816746011       -1.6764157181        2.7344816565
 H         -0.5329462102       -1.1890636900        1.8807474905
 H          1.6277363940       -3.3345871681        0.5657405098
 H          0.7357085055       -5.5891020319        0.9461748472
 H         -1.5521134436       -6.1750592383        0.2887567165
 H         -3.0468517475       -4.4816380232       -0.7211689794
 H         -4.1601396311       -2.1873265126       -1.7186591130
 H         -4.5744320913        0.0914404263       -2.5877652248
 H         -2.7572233328        1.7356224913       -2.6986088129
 H         -0.5106953888        1.2001906394       -1.8706108436
 H          2.4365158758       -2.1527583621       -1.2528956412
