  65
       -105.52392186
 C         -6.9646197577        1.5511285880        0.0687433214
 C         -6.3242495076        0.1515243019        0.0057548206
 C         -7.4179703344       -0.9323683076       -0.0480629304
 C         -5.4871319786        0.0551643612       -1.2528962182
 C         -6.0840877992        0.2374249339       -2.4926445069
 C         -5.3654125606        0.1538612755       -3.6710914245
 C         -4.0080524873       -0.1215450008       -3.6245368823
 C         -3.3887135443       -0.3091924163       -2.4093416458
 C         -4.1132344765       -0.2232867531       -1.2130995257
 N         -3.4644665885       -0.4157049133       -0.0108013735
 C         -2.0780141359       -0.7484675579       -0.0202772402
 C         -1.6970585174       -2.0871942452       -0.0455895171
 C         -0.3583364724       -2.4272543474       -0.0517854338
 C          0.6300699190       -1.4420644685       -0.0331732096
 N          1.9286960058       -1.7366673311       -0.0362992491
 C          2.8578301318       -0.7948930529       -0.0173702152
 C          4.2484369242       -1.1295019614       -0.0197565672
 C          4.6150284337       -2.4796766368       -0.0427103879
 C          5.9465318612       -2.8463533082       -0.0467861661
 C          6.3123220816       -4.2082839214       -0.0685827546
 N          6.6196474122       -5.3143166292       -0.0845224079
 C          6.9441051579       -1.8512161496       -0.0288747282
 C          6.5907401046       -0.5291816460       -0.0054525249
 C          5.2444877628       -0.1174660028        0.0010863358
 C          4.8488303649        1.2634345395        0.0270563988
 C          5.7727328367        2.3253470093        0.0543946394
 C          5.3725896653        3.6340664586        0.0772638591
 C          3.9995474915        3.9503852790        0.0730011739
 C          3.5860147041        5.2984682966        0.0938243220
 N          3.2556642904        6.3977247136        0.1101817854
 C          3.0641548352        2.9344124120        0.0485982177
 C          3.4679266895        1.5950485041        0.0267177785
 C          2.4646030084        0.5755855214        0.0054430242
 N          1.1783638589        0.8855239504        0.0080443005
 C          0.2318676456       -0.0530582938       -0.0089694378
 C         -1.1254179881        0.2608790648       -0.0025810308
 C         -4.1204698554       -0.3297226714        1.1999111132
 C         -3.4015255800       -0.5131916213        2.3884958904
 C         -4.0288130070       -0.4370637841        3.6116798641
 C         -5.3885974629       -0.1770744179        3.6738044098
 C         -6.1007790150        0.0078471610        2.5030392354
 C         -5.4954873151       -0.0599234295        1.2557728916
 H         -6.1883246717        2.3127449171        0.1099952408
 H         -7.5907809838        1.6512921855        0.9505370215
 H         -7.5801474481        1.7355816402       -0.8069139911
 H         -6.9608959378       -1.9193096077       -0.0884189271
 H         -8.0535274189       -0.8843628419        0.8315209881
 H         -8.0429834593       -0.8076658554       -0.9276715245
 H         -7.1407778396        0.4501781684       -2.5471765504
 H         -5.8611751814        0.3018525461       -4.6177275599
 H         -3.4324928637       -0.1904030310       -4.5347363447
 H         -2.3323549836       -0.5249380390       -2.3741172051
 H         -2.4558174913       -2.8546283890       -0.0594209440
 H         -0.0491393423       -3.4599985678       -0.0707895923
 H          3.8348405059       -3.2258493306       -0.0570467211
 H          7.9831741912       -2.1445695690       -0.0336738554
 H          7.3776005799        0.2078009766        0.0075350353
 H          6.8304743819        2.1165515256        0.0583672992
 H          6.0990222180        4.4326179574        0.0984753165
 H          2.0071486740        3.1542623923        0.0462963656
 H         -1.4220929497        1.2976954396        0.0169099369
 H         -2.3429382272       -0.7153899519        2.3411253142
 H         -3.4575684531       -0.5807093598        4.5158203991
 H         -5.8909765265       -0.1177231050        4.6266512690
 H         -7.1588838095        0.2097619994        2.5694915268
