73
 energy: -117.059612205910 gnorm: 0.000099096087 xtb: 6.7.1 (edcfbbe)
N            3.32315755249604        1.64178996219892       -0.90359723544882
C            2.32394865770752        1.13923646448583       -0.57447418320980
C            1.14690803925457        0.55135269372231       -0.18060274581206
C           -0.04926418015994        1.33986694648279        0.03773499202844
N            0.06916854201281        2.73555122500590        0.06128441115554
C            0.91318593487948        3.45309379381793        0.88067530539542
C            1.75785348186800        3.00075990946802        1.88502865685824
C            2.49884340466174        3.93954007004041        2.57706600749379
C            2.39041081175991        5.29897862572111        2.29381567611683
C            1.52495201748550        5.75904101365017        1.31582322475804
C            0.77575166282993        4.83466633585084        0.60512653203494
C           -0.20940346493722        4.94352669712647       -0.43862829604336
C           -0.75921018401852        6.01229554719559       -1.12973623257190
C           -1.69523186280903        5.75336358192953       -2.11666280674446
C           -2.06906506187059        4.44817935518525       -2.42825271935145
C           -1.53486904019776        3.36754413320123       -1.75150855523177
C           -0.61551580080994        3.62187071801049       -0.74333169146030
C           -1.26926537418731        0.74391581807976        0.18991815425827
C           -1.39486126558186       -0.66507955291707        0.19071560271764
N           -2.62993119258905       -1.26376475625093        0.41868369871582
C           -2.87699769918982       -2.28227483059165        1.31751462570649
C           -2.01442492626281       -2.89553695918790        2.21826530233654
C           -2.52512792011080       -3.89407187543673        3.02696597245818
C           -3.86534617247656       -4.27221172726346        2.95381841171840
C           -4.73845184388942       -3.64356654969313        2.08261863712365
C           -4.25032851375266       -2.63657241336698        1.26364615541746
C           -4.85477903843820       -1.77157979974361        0.28911422673541
C           -6.14350086316095       -1.64098477548963       -0.20650873407877
C           -6.38344697637949       -0.70098815727212       -1.19390238969522
C           -5.35251370128488        0.08980290794482       -1.70016361219348
C           -4.06104481192540       -0.02147187366087       -1.21986519146086
C           -3.81697870573261       -0.94144993512135       -0.20830285242357
C           -0.23431516088281       -1.45873827326994        0.02516965924942
C            0.99375956157183       -0.88849873501150       -0.15229246892348
N            2.12779105185552       -1.68418801668137       -0.36689418291148
C            3.31135468499709       -1.60333702904400        0.33359618039794
C            3.62642338187029       -0.82943811071877        1.44231197440030
C            4.89408524035294       -0.95399648387651        1.97766131335315
C            5.82381642670765       -1.83976985755612        1.43814412466514
C            5.50516960400051       -2.63732199141007        0.35230578781080
C            4.24047239561563       -2.52603169729677       -0.20400561274807
C            3.56907097793865       -3.19102759586866       -1.28948266186119
C            3.94831909101413       -4.17307635977146       -2.19174139031260
C            3.03382589508782       -4.58613202091184       -3.14559189882058
C            1.76172690174070       -4.02271017517063       -3.21323835102990
C            1.36024869230044       -3.04263162414492       -2.32419360616153
C            2.26690020570903       -2.63845704764623       -1.35306260499069
H            1.83338769290974        1.95021407205599        2.11859747957695
H            3.17149823508609        3.61242293114735        3.35580134365463
H            2.98660348909270        6.00342721191967        2.85424445198941
H            1.43373186552111        6.81460051009569        1.10982113190174
H           -0.45766578038781        7.02386451409664       -0.90451588813313
H           -2.13662188151297        6.57329725568062       -2.66307806630776
H           -2.78741598317021        4.27630100049066       -3.21588533311136
H           -1.81023803339748        2.35666503570086       -2.00905025070042
H           -2.14053519873119        1.35311531019806        0.37845567013406
H           -0.98207612995716       -2.59199815514725        2.30049175787408
H           -1.87400904125125       -4.38601485085122        3.73394919626993
H           -4.22711024082288       -5.05929259422091        3.59849728115551
H           -5.77944683913999       -3.92617029765847        2.04316783159474
H           -6.94050864941759       -2.26532710840871        0.16773915949351
H           -7.38101368910288       -0.58408778761398       -1.59026835636899
H           -5.56570620915572        0.79918417131310       -2.48570330557324
H           -3.26479500857878        0.57818540726719       -1.63126041320839
H           -0.32891187940859       -2.53404109458668        0.01601539437512
H            2.90668429951028       -0.15056440820965        1.87234054030375
H            5.16711038540306       -0.35507487329174        2.83364588407015
H            6.80585673391970       -1.90827099331420        1.88168463099198
H            6.22389381066855       -3.33348964208610       -0.05245863031630
H            4.93800488975430       -4.60175633677265       -2.15134763751926
H            3.31069629007460       -5.35143642846585       -3.85513509153272
H            1.07534893762671       -4.35553793155475       -3.97752605779510
H            0.37837415133634       -2.59911734594345       -2.39119528053618
