  73
       -117.10581300
 N          3.6572544780        0.6944430657       -0.8965600488
 C          2.5868301729        0.4798276282       -0.5428060829
 C          1.2452326534        0.2249099969       -0.1900402332
 C          0.3607644166        1.2994837193        0.0190732279
 N          0.8436139208        2.6064183876        0.0431006092
 C          1.8764361663        3.0762810502        0.8351643055
 C          2.6094989938        2.4186744885        1.8098093131
 C          3.5734827099        3.1390546394        2.4885471107
 C          3.7958793769        4.4868108353        2.2189767558
 C          3.0449499821        5.1553119314        1.2727290247
 C          2.0722977655        4.4503988112        0.5767601680
 C          1.1124851935        4.8203398716       -0.4269967897
 C          0.8331203209        6.0067532713       -1.0915209324
 C         -0.1684698687        6.0133878501       -2.0424527462
 C         -0.8745657987        4.8528175616       -2.3475861444
 C         -0.6117521020        3.6601807759       -1.7004950465
 C          0.3718705433        3.6550364627       -0.7244008475
 C         -0.9924277943        1.0573670668        0.2026011009
 C         -1.4819537989       -0.2475427718        0.1987777635
 N         -2.8355602725       -0.4912415452        0.4111443720
 C         -3.3603739025       -1.4329835342        1.2821241084
 C         -2.7119676529       -2.2854106960        2.1635001750
 C         -3.4892635950       -3.1112092761        2.9543446237
 C         -4.8795061322       -3.0874937086        2.8849208620
 C         -5.5314462252       -2.2183569048        2.0328627930
 C         -4.7709504714       -1.3804318154        1.2286699176
 C         -5.1091322966       -0.3612844056        0.2734286455
 C         -6.3153362009        0.1223376411       -0.2149212884
 C         -6.2903936012        1.1148687061       -1.1746662044
 C         -5.0827974217        1.6090799143       -1.6601175466
 C         -3.8706793281        1.1406343205       -1.1888793801
 C         -3.8885622588        0.1665063379       -0.2026320451
 C         -0.6055539088       -1.3150853953        0.0174966542
 C          0.7506548755       -1.0921059943       -0.1724716809
 N          1.6040423397       -2.1722770409       -0.3781712794
 C          2.7907279688       -2.4197086993        0.2901461212
 C          3.3703936923       -1.7325808282        1.3446037259
 C          4.5562927493       -2.2205017036        1.8592172217
 C          5.1475526203       -3.3743260875        1.3519477464
 C          4.5558846080       -4.0824906971        0.3249511183
 C          3.3652244259       -3.6089194554       -0.2089477170
 C          2.4810139267       -4.0948088399       -1.2326804095
 C          2.5172106863       -5.1919294286       -2.0825130086
 C          1.4889256896       -5.3611715870       -2.9886540848
 C          0.4434330131       -4.4448878257       -3.0645714387
 C          0.3865106226       -3.3445184496       -2.2295028097
 C          1.4034764666       -3.1843957565       -1.3008438384
 H          2.4345002044        1.3799710789        2.0423680789
 H          4.1638013667        2.6460797970        3.2462561127
 H          4.5611848241        5.0146719413        2.7674445736
 H          3.2039008104        6.2047421228        1.0773017157
 H          1.3944168699        6.9015541058       -0.8703227246
 H         -0.4028415469        6.9264621241       -2.5682806192
 H         -1.6396182675        4.8826465462       -3.1089780999
 H         -1.1448400416        2.7594222481       -1.9626849238
 H         -1.6579573638        1.8846691237        0.3899982015
 H         -1.6360484668       -2.2998223340        2.2480118385
 H         -3.0048911086       -3.7863213121        3.6438844865
 H         -5.4510048569       -3.7505286144        3.5164620143
 H         -6.6093724349       -2.1828054115        1.9927051123
 H         -7.2502643172       -0.2771323285        0.1471472709
 H         -7.2166948968        1.5076555430       -1.5653158757
 H         -5.0907764023        2.3718105611       -2.4242802090
 H         -2.9436539995        1.5164677242       -1.5916390102
 H         -0.9800766521       -2.3257144056        0.0162142103
 H          2.9166185375       -0.8471019951        1.7605534865
 H          5.0315225278       -1.6961240583        2.6744867965
 H          6.0764610207       -3.7218408765        1.7779019347
 H          5.0027433747       -4.9883987782       -0.0551865181
 H          3.3373907845       -5.8917604290       -2.0358273549
 H          1.4959504269       -6.2096400345       -3.6560437698
 H         -0.3396792045       -4.5938085604       -3.7929113567
 H         -0.4194417681       -2.6307874486       -2.3122090079
