73
 energy: -117.152465632260 gnorm: 0.000055436996 xtb: 6.7.1 (edcfbbe)
N            3.64959353891656        0.68524218066918       -0.89667425794747
C            2.57642001734390        0.47457019984770       -0.54626450578990
C            1.23500985413918        0.22372721617462       -0.19654817942178
C            0.35094183507976        1.30004377123573        0.01346875400760
N            0.83798288932439        2.60747812419716        0.04005068019131
C            1.87102087938744        3.07281703820390        0.83770119239093
C            2.59119863946806        2.41383643492737        1.82110127340872
C            3.55932458865450        3.12739146019235        2.50200366954504
C            3.79727949259157        4.47133259751337        2.22599611139272
C            3.05759679811555        5.14249977646353        1.27224026937528
C            2.08181922830588        4.44374834756595        0.57358707037347
C            1.13069131972298        4.81874485852009       -0.43749516660777
C            0.86607863988162        6.00682496470224       -1.10641236477622
C           -0.13227036682372        6.02155444321295       -2.06103665823911
C           -0.84912565616335        4.86712463798484       -2.36560303738048
C           -0.60032723234394        3.67305314974211       -1.71476699192356
C            0.37999055586229        3.66023846966034       -0.73525162522444
C           -1.00203935001308        1.05777042239962        0.19869296099543
C           -1.49269072560604       -0.24796377915304        0.20007333322088
N           -2.84494635633422       -0.49178503160400        0.41980727687473
C           -3.36421385834104       -1.42211742499688        1.30898873657368
C           -2.70875684145717       -2.25429810442675        2.20441864860630
C           -3.47980938861718       -3.06948835715572        3.01291667879634
C           -4.87067255350238       -3.05427273443992        2.94613171998429
C           -5.52936847281014       -2.20406851316335        2.07949282860760
C           -4.77507099105882       -1.37668447561717        1.25795396208289
C           -5.12071900213567       -0.37543061670045        0.28539847404067
C           -6.33071378400891        0.09351221054151       -0.20880534678882
C           -6.31317348572921        1.06986675315374       -1.18586366810547
C           -5.10915249490658        1.56232090528195       -1.68252563634552
C           -3.89345132811163        1.10779017602467       -1.20585764708922
C           -3.90432283951788        0.15104078149577       -0.20260310456019
C           -0.61554989344038       -1.31649815460085        0.01809126460328
C            0.73974109059600       -1.09422884549341       -0.17678523758592
N            1.59631707620677       -2.17439491651451       -0.38424729114198
C            2.77764035785669       -2.42732438476376        0.29431037022806
C            3.33979954761166       -1.75602622773132        1.36831750343117
C            4.52081420574641       -2.24709542467321        1.89225387984302
C            5.12479604668508       -3.38899323664459        1.37262831986043
C            4.55120786152001       -4.08119010725396        0.32416727319471
C            3.36515340060904       -3.60456509879740       -0.21832007656378
C            2.49593724855091       -4.07802677084851       -1.26142960988983
C            2.54810974672884       -5.16229116902590       -2.12778077778955
C            1.52972008724701       -5.32464381453867       -3.04674885472399
C            0.47800913708102       -4.41462461051231       -3.11871438904488
C            0.40576932447433       -3.32662571403253       -2.26807208989972
C            1.41321199588974       -3.17390016296260       -1.32779222274284
H            2.40362810029931        1.37754409551997        2.05839769962033
H            4.13961253894613        2.63176497531413        3.26611007206662
H            4.56515343787259        4.99446342700996        2.77604821792072
H            3.22796709172806        6.18962478420955        1.07336841606814
H            1.43492712797547        6.89676392861270       -0.88413869190146
H           -0.35585936115213        6.93649897335367       -2.58914277788509
H           -1.61220110838534        4.90295294085363       -3.12901133660886
H           -1.14363062740204        2.77798169396567       -1.97530398708408
H           -1.66699436883290        1.88619126545599        0.38625976105281
H           -1.63255148509219       -2.26159777152591        2.28623094463988
H           -2.99030723307496       -3.72911662249915        3.71418755194562
H           -5.43784687672638       -3.70850472538358        3.59142013145878
H           -6.60774267416077       -2.17505133894937        2.04243669502885
H           -7.26328964586327       -0.30374260055785        0.16208491514957
H           -7.24313526345973        1.45093518387882       -1.58093335569652
H           -5.12317740202809        2.31208440982955       -2.45975884541528
H           -2.96881079640337        1.48112397612514       -1.61659408991889
H           -0.98962038662708       -2.32796509189541        0.02096682041131
H            2.87565283034014       -0.87849618364831        1.79201482846721
H            4.98137337249289       -1.73442152896583        2.72368018572606
H            6.04930876267603       -3.74035678928692        1.80588136327509
H            5.00890377489371       -4.97771873848630       -0.06542710432190
H            3.37186938631197       -5.85824323319151       -2.08289065895950
H            1.55019069778010       -6.16252663199636       -3.72758401755755
H           -0.29724603814326       -4.55820040454314       -3.85676280344570
H           -0.40527899025289       -2.61831617974987       -2.34618748729979
