  53
        -85.88646604
 C          8.8214639251       -0.8513506065       -0.3981828127
 C          8.0153117353       -1.5600480981       -1.2780935338
 C          6.6426612268       -1.4845674932       -1.1820421140
 C          6.0326537800       -0.6853280734       -0.2029631276
 C          4.5918136093       -0.5928088924       -0.1192427296
 C          3.7516410928       -1.6818960623       -0.5069035693
 C          2.3932901796       -1.5975796586       -0.5063697002
 C          1.6753802164       -0.4293303169       -0.1219884912
 C          0.2574757493       -0.3722487506       -0.0990886450
 C         -0.5530115580       -1.3749033687       -0.6965326464
 C         -1.9184086586       -1.2997771704       -0.6822800915
 C         -2.5732535896       -0.2177702920       -0.0737417080
 N         -3.9592355314       -0.1428627065       -0.0599921716
 C         -4.8241758929       -1.1741443419        0.2564952795
 C         -4.5426221699       -2.4660476833        0.6799962157
 C         -5.6091556013       -3.2995990130        0.9630095141
 C         -6.9251761122       -2.8612700519        0.8442858698
 C         -7.2115728661       -1.5643771635        0.4567647559
 C         -6.1581548043       -0.7118794454        0.1655259398
 C         -6.0852439895        0.6700048437       -0.2304584410
 C         -7.0434849343        1.6343549956       -0.5009740722
 C         -6.6228606973        2.8900866565       -0.9014291788
 C         -5.2691684611        3.1784610323       -1.0518813238
 C         -4.2957878326        2.2319903710       -0.7888593089
 C         -4.7107214453        0.9803233551       -0.3542527496
 C         -1.7941356434        0.7849296933        0.5253470006
 C         -0.4301259891        0.7036983435        0.5224592321
 C          2.5033143138        0.6793678656        0.2723299155
 N          2.1021462946        1.9074336206        0.5876706878
 N          3.0119348964        2.7377704529        0.9134980516
 S          4.5521559655        2.0960463458        0.7837065692
 C          3.9207036841        0.5526511614        0.2971996967
 C          6.8625689138        0.0190915831        0.6807387622
 C          8.2354290048       -0.0659231713        0.5828169854
 H          9.8962970862       -0.9143731245       -0.4749018839
 H          8.4649239173       -2.1702488479       -2.0478751128
 H          6.0288913523       -2.0144300658       -1.8945685444
 H          4.2235894983       -2.6131197478       -0.7782048482
 H          1.8346396081       -2.4788694040       -0.7779745582
 H         -0.0929772429       -2.1950169456       -1.2233984728
 H         -2.5065359343       -2.0506160337       -1.1894858547
 H         -3.5262915908       -2.8071316944        0.8028852842
 H         -5.4154403615       -4.3101898341        1.2893333994
 H         -7.7311817315       -3.5419931220        1.0723730851
 H         -8.2315106788       -1.2184917588        0.3876053449
 H         -8.0938291356        1.4048951825       -0.4065677870
 H         -7.3528389629        3.6563377544       -1.1139058920
 H         -4.9710916947        4.1603324787       -1.3871108719
 H         -3.2508163374        2.4583573102       -0.9331243866
 H         -2.2869566107        1.5971227847        1.0382139500
 H          0.1537997336        1.4651106578        1.0139483922
 H          6.4216689377        0.6024845483        1.4746467332
 H          8.8546984129        0.4785784111        1.2801115394
  53
        -85.88624124
 C          8.7898358145       -0.6544022747       -0.7211079026
 C          7.9450394310       -1.4023415299       -1.5295285413
 C          6.5842348959       -1.3948470910       -1.3119131952
 C          6.0252584922       -0.6248128755       -0.2804652088
 C          4.5928405151       -0.5929340164       -0.0817865269
 C          3.7702661666       -1.7180785642       -0.3966317652
 C          2.4118239250       -1.6773401194       -0.3216014285
 C          1.6782619563       -0.5223493984        0.0726448118
 C          0.2600844068       -0.4872290630        0.1158837028
 C         -0.5440717609       -1.5031899426       -0.4677152572
 C         -1.9087849782       -1.4147476896       -0.4940526075
 C         -2.5678217552       -0.3070866647        0.0614662534
 N         -3.9487078882       -0.1862702163       -0.0100752620
 C         -4.8750400822       -1.1760200392        0.2597627717
 C         -4.6780251969       -2.4690784481        0.7254172800
 C         -5.7956685634       -3.2536651749        0.9445116755
 C         -7.0805906062       -2.7663647584        0.7214433094
 C         -7.2848264946       -1.4678121227        0.2898182760
 C         -6.1791178135       -0.6637966943        0.0619841649
 C         -6.0218718484        0.7053637820       -0.3531706939
 C         -6.9175226650        1.7004727572       -0.7128076018
 C         -6.4178058199        2.9296571246       -1.1047132341
 C         -5.0460887028        3.1611773439       -1.1600968874
 C         -4.1342446518        2.1831162801       -0.8076330305
 C         -4.6308226717        0.9588903264       -0.3806617652
 C         -1.7966426180        0.6880950903        0.6830227274
 C         -0.4343797265        0.5929944276        0.7219927070
 C          2.4903177602        0.6124129191        0.4237063980
 N          2.0687476537        1.8292836709        0.7548803778
 N          2.9680032882        2.6901858118        1.0264237759
 S          4.5182535790        2.0974979133        0.8129302066
 C          3.9103672780        0.5315551783        0.3702937506
 C          6.8937958785        0.1186884835        0.5306735755
 C          8.2553394559        0.1006378699        0.3119066847
 H          9.8553224744       -0.6632547360       -0.8936095381
 H          8.3540893925       -1.9883509933       -2.3396056228
 H          5.9354781818       -1.9540747586       -1.9691099375
 H          4.2585133484       -2.6380938353       -0.6774273154
 H          1.8675006763       -2.5811838629       -0.5441414198
 H         -0.0781227798       -2.3421553201       -0.9584515695
 H         -2.4896447379       -2.1728850614       -0.9986904473
 H         -3.6879881391       -2.8476404522        0.9277679072
 H         -5.6680036582       -4.2641626313        1.3023524892
 H         -7.9282691122       -3.4099011933        0.9015209485
 H         -8.2819528266       -1.0836387250        0.1384530227
 H         -7.9804096824        1.5144063180       -0.6934943167
 H         -7.0981898446        3.7190741145       -1.3858079734
 H         -4.6840032873        4.1228230105       -1.4908370691
 H         -3.0731686871        2.3648432487       -0.8788935855
 H         -2.2968752383        1.5094137669        1.1738672400
 H          0.1422349683        1.3519952197        1.2255541658
 H          6.4959856498        0.6799397964        1.3624767523
 H          8.9066605654        0.6744300405        0.9544290942
  53
        -85.88550633
 C          8.8253462697       -0.9050866480       -0.3740272695
 C          8.0319021402       -2.0192816732       -0.1422808976
 C          6.6590471220       -1.9025918699       -0.1025187352
 C          6.0368173676       -0.6570754921       -0.2797488292
 C          4.5959290738       -0.5400317177       -0.2209682483
 C          3.7502852782       -1.6125930019       -0.6437582552
 C          2.3931449369       -1.5293518960       -0.6225778314
 C          1.6737991926       -0.3935801558       -0.1459539003
 C          0.2567951580       -0.3439420996       -0.1275795685
 C         -0.5491277324       -1.3298825135       -0.7626116463
 C         -1.9148106399       -1.2706982922       -0.7394936271
 C         -2.5787886391       -0.2169319704       -0.0913139883
 N         -3.9646217443       -0.1473686410       -0.0794719395
 C         -4.8304259650       -1.1900734859        0.1950728842
 C         -4.5506839800       -2.4988762350        0.5648638374
 C         -5.6182113709       -3.3404745218        0.8192017562
 C         -6.9335482354       -2.8945162483        0.7247844204
 C         -7.2182010965       -1.5823993886        0.3904005628
 C         -6.1639163275       -0.7219443250        0.1279238043
 C         -6.0901024645        0.6748033353       -0.2119410943
 C         -7.0476700917        1.6504977858       -0.4405350443
 C         -6.6263855714        2.9205548212       -0.7925181878
 C         -5.2728789401        3.2119967059       -0.9378049490
 C         -4.3002426040        2.2543358854       -0.7157501418
 C         -4.7154882116        0.9876701742       -0.3271265202
 C         -1.8057091277        0.7719971223        0.5394679871
 C         -0.4415078720        0.7071844525        0.5279983000
 C          2.5076009922        0.6867288602        0.3198715919
 N          2.1099051726        1.8426854482        0.8445971578
 N          3.0280895455        2.6527605715        1.1969895180
 S          4.5669499346        2.0618315913        0.8994929689
 C          3.9263887116        0.5894055293        0.2422617633
 C          6.8543553659        0.4571393111       -0.5143416452
 C          8.2262010988        0.3315053377       -0.5641532892
 H          9.8999791818       -1.0001566558       -0.4081702531
 H          8.4911500288       -2.9842390297        0.0139864292
 H          6.0577520424       -2.7734303481        0.1101180260
 H          4.2179922772       -2.5032262953       -1.0324513327
 H          1.8347369140       -2.3845070777       -0.9673442034
 H         -0.0864347628       -2.1290594680       -1.3183603889
 H         -2.4963821404       -2.0101321345       -1.2704884967
 H         -3.5349248742       -2.8477811018        0.6688073275
 H         -5.4257453508       -4.3640629391        1.1031949048
 H         -7.7402507170       -3.5817966711        0.9290842573
 H         -8.2373506098       -1.2310424931        0.3404953494
 H         -8.0980512204        1.4191946169       -0.3514170945
 H         -7.3558557497        3.6957734143       -0.9714039803
 H         -4.9741536148        4.2054034127       -1.2361245338
 H         -3.2556653366        2.4843174187       -0.8568235225
 H         -2.3040455819        1.5625292433        1.0800592844
 H          0.1366822633        1.4579832011        1.0403109789
 H          6.4025727426        1.4199961212       -0.6971251073
 H          8.8349832769        1.2024401723       -0.7566850636
  53
        -85.88537846
 C          8.8116015741       -0.9744673110       -0.3398394311
 C          7.9706894348       -2.0760132786       -0.4145576791
 C          6.6029323846       -1.9096437181       -0.4344659889
 C          6.0319370851       -0.6287074006       -0.3653868922
 C          4.5955453483       -0.4663865269       -0.3592194994
 C          3.7421230439       -1.3909376770       -1.0383223731
 C          2.3861100715       -1.2980779356       -1.0054067818
 C          1.6736787575       -0.2895458264       -0.2901566934
 C          0.2564934717       -0.2409237861       -0.2546927175
 C         -0.5532450291       -1.2795177869       -0.7932042099
 C         -1.9180996660       -1.2365483918       -0.7310607705
 C         -2.5784050135       -0.1415433283       -0.1509393502
 N         -3.9655966444       -0.0976488431       -0.1043014877
 C         -4.7951347599       -1.1381567007        0.2718721916
 C         -4.4693151919       -2.3973447244        0.7581810688
 C         -5.5063587580       -3.2457361073        1.1003161046
 C         -6.8365582211       -2.8534146989        0.9780232672
 C         -7.1669406922       -1.5872543717        0.5286311442
 C         -6.1434871066       -0.7206040104        0.1782233843
 C         -6.1174131356        0.6424161168       -0.2833663421
 C         -7.1084464977        1.5628752500       -0.5865390036
 C         -6.7320388470        2.8113161637       -1.0491807701
 C         -5.3895777324        3.1338460858       -1.2288707669
 C         -4.3841919675        2.2306659875       -0.9355138024
 C         -4.7543145722        0.9878469081       -0.4390535539
 C         -1.8030616888        0.9039793117        0.3746812240
 C         -0.4377163163        0.8518942981        0.3338582989
 C          2.5164353858        0.6677677357        0.3831735348
 N          2.1281598387        1.6783405218        1.1570560894
 N          3.0526446103        2.3875830134        1.6713309236
 S          4.5856222621        1.8455743289        1.2766203402
 C          3.9346828814        0.5615415666        0.3084930512
 C          6.8973787443        0.4725767912       -0.2958297876
 C          8.2649675741        0.2992157532       -0.2858873511
 H          9.8825396728       -1.1080033386       -0.3267044557
 H          8.3888489066       -3.0713298189       -0.4519747109
 H          5.9616361616       -2.7776795014       -0.4603788806
 H          4.2042428163       -2.1660511541       -1.6292090782
 H          1.8239138614       -2.0176805919       -1.5779637595
 H         -0.0961757905       -2.1369456637       -1.2593031642
 H         -2.5036393393       -2.0310365755       -1.1700986125
 H         -3.4417736439       -2.7017200872        0.8843021542
 H         -5.2777175614       -4.2313096872        1.4769086426
 H         -7.6185742578       -3.5447870562        1.2529736312
 H         -8.1975823631       -1.2748957692        0.4582278680
 H         -8.1499469973        1.3049425452       -0.4697837607
 H         -7.4879742934        3.5438727321       -1.2881276263
 H         -5.1260684505        4.1083435195       -1.6113238574
 H         -3.3485771733        2.4827270188       -1.1030079114
 H         -2.2962817539        1.7358040426        0.8546673507
 H          0.1423060028        1.6479151081        0.7690744299
 H          6.4888321785        1.4714037158       -0.2915202753
 H          8.9118211684        1.1628026606       -0.2400648236
  53
        -85.88529796
 C          8.8189324210       -0.6001863127        0.6639977950
 C          8.0872008828       -1.7788132441        0.6413017676
 C          6.7158462849       -1.7468967672        0.5044002381
 C          6.0345263521       -0.5274197496        0.3694486600
 C          4.5956373542       -0.4969547334        0.2215298229
 C          3.7671599584       -1.4845238826        0.8392227206
 C          2.4097114375       -1.4523895564        0.7662348486
 C          1.6735884288       -0.4629717048        0.0480732396
 C          0.2563564917       -0.4278618905        0.0354453407
 C         -0.4570837940        0.4971525540       -0.7763944968
 C         -1.8196877760        0.5852723207       -0.7459695045
 C         -2.5776898189       -0.2606626318        0.0804240164
 N         -3.9593044720       -0.1445963348        0.1375739590
 C         -4.8696045793       -1.1846691547        0.1092938963
 C         -4.6532182921       -2.5449287737       -0.0663809609
 C         -5.7578745532       -3.3766796123       -0.0895480930
 C         -7.0491125397       -2.8735336178        0.0439145316
 C         -7.2733915032       -1.5153509091        0.1835365968
 C         -6.1809135686       -0.6629859951        0.2111134052
 C         -6.0452448489        0.7665173391        0.3114260036
 C         -6.9559127479        1.8010502629        0.4593052137
 C         -6.4760082052        3.0946608100        0.5627028732
 C         -5.1086618354        3.3555601927        0.5418803295
 C         -4.1819851495        2.3393172274        0.3972528690
 C         -4.6590430919        1.0428085241        0.2579921583
 C         -1.9012914768       -1.2113728217        0.8616846675
 C         -0.5365408906       -1.2887134786        0.8455653271
 C          2.4938576918        0.5034638303       -0.6410147690
 N          2.0855259574        1.4891884717       -1.4360771861
 N          2.9950801978        2.2220354818       -1.9454469430
 S          4.5360143646        1.7677971906       -1.4769162788
 C          3.9112922827        0.4713074128       -0.5082694282
 C          6.7903363654        0.6533107136        0.3938937440
 C          8.1601094220        0.6147910603        0.5435066177
 H          9.8920351732       -0.6282546769        0.7767821998
 H          8.5937741795       -2.7290255564        0.7277382990
 H          6.1642759310       -2.6738316841        0.4587263711
 H          4.2459691056       -2.2550046157        1.4228003223
 H          1.8650223998       -2.2296864911        1.2770321165
 H          0.1085269789        1.1354269840       -1.4345564281
 H         -2.3304302825        1.2806463306       -1.3950368966
 H         -3.6586696937       -2.9422949168       -0.1983769308
 H         -5.6149100252       -4.4386734372       -0.2204798745
 H         -7.8861956888       -3.5547393646        0.0238465272
 H         -8.2759402151       -1.1237809860        0.2631870280
 H         -8.0149535494        1.5973715622        0.5000093969
 H         -7.1684737919        3.9149856524        0.6753372649
 H         -4.7617201722        4.3723636747        0.6470905966
 H         -3.1240441253        2.5502738052        0.4090719481
 H         -2.4699153706       -1.8466240502        1.5250266346
 H         -0.0640117105       -2.0002485618        1.5026545170
 H          6.2891347672        1.6073748827        0.3354202373
 H          8.7197422351        1.5380535921        0.5726072083
  53
        -85.88518681
 C          8.8164795701       -0.5125568144        0.7285827519
 C          8.0826608457       -1.6844559917        0.8465100496
 C          6.7115580006       -1.6668351280        0.7067605792
 C          6.0320288523       -0.4705899445        0.4285153224
 C          4.5939500091       -0.4548325884        0.2782108300
 C          3.7622253591       -1.3654110554        1.0007084050
 C          2.4059889187       -1.3540360421        0.9046473973
 C          1.6723958259       -0.4568142853        0.0712265956
 C          0.2550493615       -0.4215295032        0.0529281489
 C         -0.4538591162        0.5300565163       -0.7322583761
 C         -1.8166221864        0.6207069472       -0.7030509091
 C         -2.5796154795       -0.2501072912        0.0917259579
 N         -3.9612679717       -0.1297858309        0.1515999983
 C         -4.8768230570       -1.1634959952        0.0860882487
 C         -4.6677755819       -2.5173372221       -0.1407489657
 C         -5.7767521578       -3.3417796076       -0.1945180327
 C         -7.0653170262       -2.8374561805       -0.0411147355
 C         -7.2823943410       -1.4843471050        0.1493635339
 C         -6.1853847209       -0.6393113065        0.2081275554
 C         -6.0424329815        0.7846977063        0.3611722285
 C         -6.9477876060        1.8175433680        0.5482509740
 C         -6.4614072787        3.1040011908        0.6990543085
 C         -5.0927593368        3.3586210292        0.6866908849
 C         -4.1714176539        2.3438771659        0.5033454719
 C         -4.6549280375        1.0557663397        0.3164780507
 C         -1.9086185337       -1.2304859604        0.8400205307
 C         -0.5437224853       -1.3075897654        0.8296218140
 C          2.4972942730        0.4310082856       -0.7127088697
 N          2.0967990841        1.2997369582       -1.6379309153
 N          3.0081417473        1.9789327847       -2.2125713836
 S          4.5451654490        1.5961343205       -1.6716346252
 C          3.9128846906        0.4233365255       -0.5606430663
 C          6.7899665162        0.7037082875        0.3129985667
 C          8.1598660980        0.6805995268        0.4648084135
 H          9.8895414887       -0.5289672292        0.8436402269
 H          8.5878933897       -2.6183954912        1.0450090450
 H          6.1581130234       -2.5915923609        0.7711315992
 H          4.2370786954       -2.0545154219        1.6810976945
 H          1.8599776425       -2.0568224461        1.5122256952
 H          0.1143477030        1.1886974841       -1.3672411630
 H         -2.3226710906        1.3419701767       -1.3270680832
 H         -3.6754848169       -2.9147932098       -0.2883573133
 H         -5.6393443930       -4.3988320982       -0.3653254528
 H         -7.9059232182       -3.5131169614       -0.0861887796
 H         -8.2828426977       -1.0906861609        0.2438989448
 H         -8.0078077969        1.6177421578        0.5824497410
 H         -7.1496434690        3.9230643326        0.8425736173
 H         -4.7406742139        4.3690734802        0.8292299468
 H         -3.1124127433        2.5489138916        0.5221482835
 H         -2.4813052125       -1.8940905902        1.4712775445
 H         -0.0781700337       -2.0591863333        1.4455036688
 H          6.2901622603        1.6451070950        0.1439374252
 H          8.7212016651        1.5997028986        0.3838075636
