  30
        -58.88203193
 O          1.3064480554        3.4481504650       -0.0163175273
 C          1.7152186511        2.3031596602       -0.0107111629
 N          3.0680945388        2.0511165614       -0.0004231703
 C          3.6216591022        0.7983160507        0.0050749226
 C          4.9999682185        0.4804503474        0.0193631301
 C          5.2067219913       -0.8619384355        0.0217342995
 S          3.7494737503       -1.7752218854        0.0078734525
 C          2.8077172917       -0.3204540028       -0.0024555453
 C          1.3894880892       -0.2007986523       -0.0108183245
 C          0.5225625464       -1.2905018846       -0.0136999789
 C         -0.8507333431       -1.1097906416       -0.0125549025
 C         -1.7151671988       -2.3032287111       -0.0110290816
 O         -1.3064176429       -3.4481851241       -0.0160343574
 N         -3.0680073435       -2.0510598456       -0.0001543687
 C         -3.6216053626       -0.7982281654        0.0052897796
 C         -4.9999692771       -0.4805216947        0.0187788428
 C         -5.2068458048        0.8618806448        0.0216440081
 S         -3.7496182797        1.7752722807        0.0076341312
 C         -2.8077145296        0.3205114881       -0.0017979115
 C         -1.3893729677        0.2007660705       -0.0100257218
 C         -0.5224716163        1.2904967592       -0.0125413232
 C          0.8507377127        1.1097342901       -0.0124047989
 H          3.6763937995        2.8601870762        0.0033029124
 H          5.7862247816        1.2132724159        0.0283750439
 H          6.1447689511       -1.3801594817        0.0322429412
 H          0.9128272640       -2.2979614601       -0.0143072018
 H         -3.6762255748       -2.8601072262        0.0034833159
 H         -5.7859304128       -1.2131778252        0.0284280990
 H         -6.1448643194        1.3799551909        0.0332072885
 H         -0.9125969444        2.2979003401       -0.0131746128
