30
 energy: -58.882038858994 gnorm: 0.000023149501 xtb: 6.7.1 (edcfbbe)
O            1.30635750330629        3.44818527043833       -0.00469221617786
C            1.71522867686507        2.30323005469452       -0.00249205824339
N            3.06810096198286        2.05108210134717        0.00098517373293
C            3.62167949520704        0.79829467150626        0.00342535109258
C            5.00011349805576        0.48042725579898        0.00856211993590
C            5.20686066494633       -0.86193092639629        0.01005251015283
S            3.74960144338130       -1.77527732524063        0.00516843870004
C            2.80774270916734       -0.32050743089346        0.00112791078341
C            1.38947143181586       -0.20084329752427       -0.00201638386741
C            0.52254002616624       -1.29048913669042       -0.00307571931642
C           -0.85075928370114       -1.10979486198317       -0.00285917478360
C           -1.71517682430277       -2.30324062462830       -0.00260698815104
O           -1.30630448578381       -3.44819469846826       -0.00494571112988
N           -3.06804959753804       -2.05109378541255        0.00093678834271
C           -3.62162860796914       -0.79830585857780        0.00354248481915
C           -5.00006201692990       -0.48043957964353        0.00879825867524
C           -5.20680960187943        0.86191844961292        0.01046412025263
S           -3.74955126978427        1.77526531797817        0.00560484907462
C           -2.80769250424307        0.32049705187333        0.00133095441929
C           -1.38942085891271        0.20083376729792       -0.00191794602854
C           -0.52248972324498        1.29047951724744       -0.00294437514641
C            0.85081018988238        1.10978530527759       -0.00282340475419
H            3.67638661355606        2.86015971491440        0.00195664484703
H            5.78645786746840        1.21317183697434        0.01122383713482
H            6.14500331260027       -1.38015564090565        0.01388841231238
H            0.91270408491445       -2.29786969658129       -0.00335511091806
H           -3.67633749673056       -2.86016975868683        0.00188598938589
H           -5.78640573919723       -1.21318517295300        0.01140566727485
H           -6.14495201490198        1.38014216915532        0.01443588291770
H           -0.91265405655276        2.29786004747090       -0.00308412981646
