30
 energy: -58.803656572935 gnorm: 0.000035962563 xtb: 6.7.1 (edcfbbe)
O            1.32031712115559        3.46578189609202       -0.00334800904918
C            1.72126070931210        2.31822932929398       -0.00130720542667
N            3.07470895258274        2.06559117788022        0.00116644037366
C            3.63720218887521        0.81901255680765        0.00333110635035
C            4.99086460516200        0.49013838778337        0.00676819851289
C            5.19830651571616       -0.86644011568709        0.00802021760079
S            3.72803645963395       -1.78735948595096        0.00489399896658
C            2.78203136755798       -0.32067601935188        0.00203637668576
C            1.40606371052741       -0.19491197811196       -0.00025398155381
C            0.50810220376635       -1.30802264157863       -0.00123223216544
C           -0.84427522021862       -1.12968152439134       -0.00110162650387
C           -1.72120843406606       -2.31823616967522       -0.00141942411258
O           -1.32025999732816       -3.46578724245148       -0.00359777463161
N           -3.07465513478426       -2.06560186014498        0.00116703588932
C           -3.63715060767747       -0.81902485250659        0.00349325582649
C           -4.99081126053697       -0.49015637763861        0.00705356539378
C           -5.19825923156363        0.86642149104419        0.00845472385849
S           -3.72799137002021        1.78734774706609        0.00532181202907
C           -2.78197853790946        0.32066505589222        0.00225471721113
C           -1.40601305452649        0.19490661194827       -0.00014020021403
C           -0.50805078992099        1.30801817198625       -0.00106907569528
C            0.84432682720368        1.12967603988276       -0.00104710664232
H            3.68064943686954        2.87735964419746        0.00141575914847
H            5.78886236624774        1.21053157722955        0.00837003094378
H            6.13503757135616       -1.38526631112386        0.01069362238773
H            0.91315850443628       -2.30905930201532       -0.00174381918828
H           -3.68059896448135       -2.87736815782560        0.00137705466836
H           -5.78880942852310       -1.21054978658714        0.00863696569243
H           -6.13499261971517        1.38524305718687        0.01124270138229
H           -0.91310922014254        2.30905394985267       -0.00145495459795
