30
 energy: -58.882039524339 gnorm: 0.000024248528 xtb: 6.7.1 (edcfbbe)
O            1.65610632227011        3.29450575428554       -0.00000928419397
C            1.94433794977839        2.11339676595360       -0.00000820228695
N            3.26385720600624        1.72260830051951       -0.00001532200258
C            3.68481961576916        0.41924894071688       -0.00001420805789
C            5.02297560158777       -0.03954137034278       -0.00001861849965
C            5.08972206597868       -1.39608678747379       -0.00001385020913
S            3.54576989616542       -2.15374186093973       -0.00000898702028
C            2.75947965271858       -0.60932140727790       -0.00000832563555
C            1.36119444399068       -0.34353810852072       -0.00000417663512
C            0.38617205742977       -1.33763426654695        0.00000073988135
C           -0.96105811703135       -1.01580368887804        0.00000471667095
C           -1.94433781215114       -2.11339669545230        0.00001066859614
O           -1.65610618076679       -3.29450568284063        0.00001348615421
N           -3.26385706920865       -1.72260823313335        0.00001304115188
C           -3.68481948031622       -0.41924887401193        0.00001284783132
C           -5.02297546847514        0.03954143033045        0.00001764963140
C           -5.08972193884909        1.39608684686201        0.00001564981412
S           -3.54576977262292        2.15374192803724        0.00000957161780
C           -2.75947952017440        0.60932147645041        0.00000785507285
C           -1.36119431068336        0.34353818097131        0.00000338557593
C           -0.38617192348058        1.33763433973289       -0.00000200705850
C            0.96105825099854        1.01580376203454       -0.00000546936696
H            3.95265351902365        2.46435350802713       -0.00001969682198
H            5.88090718658271        0.60793174769524       -0.00002372320022
H            5.96921709916035       -2.00860438270329       -0.00001530600191
H            0.67003108931247       -2.37997815978786        0.00000216548104
H           -3.95265338201448       -2.46435344092776        0.00001753906788
H           -5.88090704849610       -0.60793169435017        0.00002214881283
H           -5.96921697407730        2.00860443934093        0.00001867267945
H           -0.67003095841976        2.37997823221906       -0.00000296105718
