104
 energy: -159.693860295279 gnorm: 0.000046933940 xtb: 6.7.1 (edcfbbe)
C            8.59820240690630        0.70833352261919       -0.53042179530742
C            7.13127065156581        0.51073158445525       -0.27594629239486
C            6.30272099737343       -0.03186086805878       -1.26285701594099
C            6.82821280344683       -0.48823231105525       -2.56678942848635
C            7.79334069181667       -1.48700780155249       -2.65141603382318
C            8.25071675661633       -1.91738992740579       -3.88409097341335
C            7.75367622436659       -1.35318303816994       -5.04733882953723
C            6.78768327624811       -0.36306602832167       -4.97271120330152
C            6.32301898047277        0.06275430162796       -3.74118838750041
C            4.93466049370878       -0.14459114886761       -1.04423152021301
C            4.37787479223756        0.28939161719480        0.14502869260093
N            2.96734798560886        0.18365065888153        0.35206448410111
C            2.53635586801275       -0.65115522258294        1.37660135712588
O            3.35709249895025       -1.28231886489538        2.04739168072391
C            1.10519802840071       -0.73997369618390        1.57619716807930
C            0.60451747436250       -1.52630070277138        2.62775136313700
C           -0.75149438443236       -1.59333515483209        2.84910760693628
C           -1.64410996204879       -0.92732811749960        2.01585580095673
C           -1.18870557058174       -0.17265888607259        0.92654450239155
C           -2.05076515898679        0.53034444074219        0.03023748883041
N           -3.44146520133496        0.39611987160831        0.09302906006411
C           -4.21630688620020        1.54435984704225       -0.00161729508678
C           -3.76443978554043        2.74144175724606        0.57041686678723
C           -4.51126026466272        3.89105450438669        0.45883187281054
C           -5.73238315469648        3.89610038229470       -0.22438166208293
C           -6.52264580143180        5.12333370651111       -0.34593087579592
C           -7.91542359469597        5.08562498455153       -0.25901106046529
C           -8.65854030677292        6.24549954845967       -0.36899537424604
C           -8.02715653805249        7.46118179125506       -0.58037742596610
C           -6.64511347911980        7.51041714360279       -0.67474523047664
C           -5.89785343061752        6.35425145332608       -0.55374123307209
C           -6.17552680802421        2.69839432384527       -0.79624846973446
C           -5.43547520541918        1.54351978227108       -0.69353140526485
C           -4.02073643080008       -0.85740111322183        0.16058461118981
C           -5.25797521074671       -1.03886053972089        0.80494295150012
C           -5.83021858056412       -2.28761398239253        0.89805156507531
C           -5.16664891249030       -3.37938785430068        0.34495432103251
C           -3.92314311593707       -3.20437575452640       -0.29790319840362
C           -3.35028604717940       -1.96435258936918       -0.39247745088154
C           -3.40162947630588       -4.52488503456510       -0.81646916588639
C           -3.25549643246163       -4.50330660699657       -2.34212502198364
C           -2.06596083549529       -4.88372212721836       -0.15510768925982
C           -4.49809063072835       -5.47202657534660       -0.38262055825451
C           -4.58854895406529       -6.83455968812503       -0.56645888054069
C           -5.70245946740371       -7.50467506662779       -0.07510503510084
C           -6.71180372464424       -6.82087251230577        0.59087289320248
C           -6.63196896978989       -5.45303552926773        0.78199136654744
C           -5.51953340985083       -4.77876642170100        0.29298431460775
C           -1.51271328880670        1.37898636755896       -0.95832277881205
C           -0.16209446050477        1.50973098873739       -1.11879302156855
C            0.72619409962337        0.78792217669917       -0.28839742607958
C            0.21811672337089       -0.04566153661030        0.72967796099507
C            2.14909688516851        0.92947807900088       -0.48895511111051
O            2.64508834168599        1.67175799089413       -1.34341228011632
C            5.18758948983003        0.82812792708218        1.12864764549819
C            6.55982391990138        0.92495526454748        0.93101848090311
C            7.37502831639680        1.49276205400776        2.02623134889217
C            8.37892902532655        0.74525961721175        2.63408789415725
C            9.11365199455268        1.27602679632696        3.67907515908723
C            8.85851703060794        2.56143851956064        4.12769746005848
C            7.85722604252871        3.31075346179260        3.53247650475666
C            7.11663502362649        2.77829857799299        2.49213495862902
H            8.78323130149935        0.85257518301121       -1.59232613941493
H            8.96419394709136        1.57375643581580        0.01734598052548
H            9.16976136451987       -0.15963554651280       -0.20448745449266
H            8.17088638626080       -1.93766522522957       -1.74554461790244
H            8.99742996125267       -2.69666505849594       -3.93697785501864
H            8.11493722006621       -1.68636106325796       -6.00940369269059
H            6.39291588702752        0.07822863493303       -5.87683471678967
H            5.56938381500408        0.83547231284147       -3.67747948179921
H            4.30098348353118       -0.56914004008498       -1.80977518633523
H            1.31324070711648       -2.04933207567796        3.25143762604044
H           -1.13464397407901       -2.17740205715761        3.67284946613658
H           -2.69987344888508       -0.99887577185352        2.22305061317159
H           -2.83563837948147        2.74282902328599        1.12114391001473
H           -4.16238594148880        4.79571045351413        0.93275717441861
H           -8.41388825913424        4.14530295898556       -0.07557798719210
H           -9.73516137628170        6.20363397932015       -0.28955021975575
H           -8.60922653036022        8.36646131079517       -0.67069377878336
H           -6.14874698701555        8.45484976645110       -0.84512419150506
H           -4.82280846583832        6.39842719157418       -0.64817967699274
H           -7.09494191547834        2.68868032684043       -1.36123965196866
H           -5.77092968683047        0.63857551314490       -1.17739680117592
H           -5.73912378958582       -0.18819402958959        1.26365886900726
H           -6.77207527533282       -2.41638360014374        1.40806318954005
H           -2.40876948179000       -1.81447543147540       -0.89798842321244
H           -2.94340325038029       -5.48025493426567       -2.70208268648854
H           -4.20353043796820       -4.24637267987391       -2.81032490553220
H           -2.50852871850379       -3.77062384851537       -2.63770855074916
H           -2.17265636953332       -4.91000769588978        0.92736203168623
H           -1.72961612735628       -5.86028493447226       -0.49412688940047
H           -1.30616462515689       -4.14807067236376       -0.40859710359543
H           -3.81151862660479       -7.37942593339250       -1.08156834705416
H           -5.78494617298616       -8.57287526467278       -0.21312643640272
H           -7.56685447564107       -7.36577122221478        0.96340517310141
H           -7.41605541703896       -4.92246267876678        1.30060945145336
H           -2.19107338357068        1.89219719138082       -1.62403550504025
H            0.26263430265400        2.13983449720841       -1.88427895081586
H            4.75319236322726        1.15733979377463        2.06181453476713
H            8.56757102797197       -0.26248162602062        2.29464084261254
H            9.88746680475413        0.68389965533737        4.14624316909408
H            9.43527742690505        2.97664803122947        4.94135777230874
H            7.65068495912502        4.31286070482911        3.88048331465880
H            6.33580661800814        3.36159838624368        2.02402685223103
