  104
       -159.62037797
 C          8.6070991381        0.5993978198       -0.5499960461
 C          7.1418062196        0.3913916922       -0.2988913181
 C          6.3098033653       -0.1120564252       -1.3038311150
 C          6.8276998086       -0.5285646548       -2.6207712672
 C          7.8297588518       -1.4862045126       -2.7435564421
 C          8.2771069682       -1.8767262095       -3.9925505767
 C          7.7335483539       -1.3134588991       -5.1349783674
 C          6.7303255087       -0.3649720909       -5.0227117764
 C          6.2755739548        0.0205029936       -3.7752035663
 C          4.9401888725       -0.2159090842       -1.0922891243
 C          4.3870892824        0.1798052776        0.1116903917
 N          2.9773983071        0.0889252257        0.3102316063
 C          2.5320338142       -0.7459965163        1.3282148747
 O          3.3300007374       -1.4022828083        1.9898904445
 C          1.0928679818       -0.8051252358        1.5295532908
 C          0.5788594389       -1.5943174171        2.5734279597
 C         -0.7744845367       -1.6252853780        2.8040765989
 C         -1.6565419355       -0.9200869369        1.9858237531
 C         -1.1890957133       -0.1686952095        0.9023377078
 C         -2.0369564171        0.5693567496        0.0185787292
 N         -3.4244984066        0.4680236112        0.0742340371
 C         -4.1800013599        1.6252342135       -0.0681616199
 C         -3.7135245127        2.8333058880        0.4644304122
 C         -4.4408439815        3.9900986444        0.3071047338
 C         -5.6579954446        3.9903717868       -0.3804517894
 C         -6.4305841372        5.2240837903       -0.5456052484
 C         -7.8222467621        5.2106450253       -0.4499605933
 C         -8.5488063029        6.3757334490       -0.6040862217
 C         -7.9007842537        7.5719559271       -0.8659624290
 C         -6.5192695114        7.5969783273       -0.9676159006
 C         -5.7889549479        6.4354547747       -0.8042154279
 C         -6.1160813210        2.7812541455       -0.9120172208
 C         -5.3930896839        1.6197975246       -0.7669914092
 C         -4.0341928914       -0.7710846962        0.1860894603
 C         -5.2711027833       -0.9045165496        0.8360024918
 C         -5.8635726913       -2.1400164481        0.9841926381
 C         -5.2119277677       -3.2653990571        0.4916680349
 C         -3.9664671293       -3.1363510585       -0.1532778315
 C         -3.3816652761       -1.9096588463       -0.3171961621
 C         -3.4420987976       -4.4879304966       -0.5765571166
 C         -3.2469972199       -4.5665835249       -2.0933422882
 C         -2.1302698906       -4.8000449065        0.1521732832
 C         -4.5537843779       -5.4011538841       -0.1106717159
 C         -4.6529945847       -6.7703898009       -0.2231105947
 C         -5.7788338848       -7.4046393085        0.2875410570
 C         -6.7888362485       -6.6782817209        0.9027799859
 C         -6.6991513555       -5.3025726372        1.0222298472
 C         -5.5764015908       -4.6646247514        0.5127406729
 C         -1.4750359548        1.4195915377       -0.9642638603
 C         -0.1260711044        1.5103499973       -1.1306085911
 C          0.7459667214        0.7472055726       -0.3146746447
 C          0.2192274499       -0.0804099687        0.6968973101
 C          2.1748122136        0.8517767273       -0.5307556545
 O          2.6727854003        1.5791064403       -1.3873494540
 C          5.2005854157        0.6756950256        1.1154653913
 C          6.5726597825        0.7707259997        0.9201324750
 C          7.3886718564        1.3093672593        2.0265230134
 C          8.4255677667        0.5691044288        2.5848734994
 C          9.1623928814        1.0774578058        3.6388534264
 C          8.8769033691        2.3341605160        4.1458811989
 C          7.8429959974        3.0762395706        3.6002882558
 C          7.0998806426        2.5651397639        2.5518700183
 H          8.7898713766        0.7754807932       -1.6072533909
 H          8.9720241661        1.4486509580        0.0229773200
 H          9.1837736915       -0.2752347061       -0.2513279678
 H          8.2432850832       -1.9398711279       -1.8554265267
 H          9.0519961991       -2.6251594898       -4.0752391844
 H          8.0869633199       -1.6161765166       -6.1096088448
 H          6.2999961018        0.0750143635       -5.9106728915
 H          5.4960623618        0.7623335216       -3.6817402960
 H          4.3069122252       -0.6057572936       -1.8732595833
 H          1.2758845250       -2.1472338220        3.1821105894
 H         -1.1721006330       -2.2093454923        3.6209832001
 H         -2.7113574604       -0.9620609763        2.2048670478
 H         -2.7864077046        2.8390621861        1.0175906087
 H         -4.0788172599        4.9065348277        0.7480407465
 H         -8.3324627140        4.2851299439       -0.2250874736
 H         -9.6251305622        6.3521366306       -0.5167944836
 H         -8.4699694712        8.4807709771       -0.9904962750
 H         -6.0093197516        8.5254710682       -1.1777715782
 H         -4.7134383987        6.4579756339       -0.9045921345
 H         -7.0352164780        2.7641126603       -1.4783027355
 H         -5.7408645486        0.7025125979       -1.2190196675
 H         -5.7412228443       -0.0261741428        1.2532770450
 H         -6.8105906282       -2.2292951165        1.4938269690
 H         -2.4384160749       -1.7977901770       -0.8279007010
 H         -2.9324978090       -5.5667002307       -2.3804426474
 H         -4.1776032447       -4.3343626276       -2.6065898292
 H         -2.4854903712       -3.8591127515       -2.4124829043
 H         -2.2757498864       -4.7471682675        1.2289679149
 H         -1.7848808444       -5.7986325199       -0.1033760575
 H         -1.3620887061       -4.0823921973       -0.1257301374
 H         -3.8736387098       -7.3472233514       -0.6989845017
 H         -5.8690095073       -8.4773579230        0.2038458219
 H         -7.6537492335       -7.1942133029        1.2923769261
 H         -7.4841953047       -4.7374872202        1.5020095220
 H         -2.1449057943        1.9567010572       -1.6196620524
 H          0.3144529615        2.1333648577       -1.8916214972
 H          4.7719324640        0.9768252359        2.0582167977
 H          8.6386314548       -0.4172741330        2.2010546680
 H          9.9627954175        0.4912429153        4.0668982819
 H          9.4566098664        2.7330864720        4.9651682722
 H          7.6144021145        4.0561959791        3.9935207508
 H          6.2947163608        3.1435925548        2.1219260827
