  104
       -159.68636897
 C          8.6659686115        0.6765956935       -0.5423320132
 C          7.2006002723        0.4543801617       -0.3039606028
 C          6.3656508524        0.0323881097       -1.3422647247
 C          6.8820358306       -0.2787296155       -2.6897967959
 C          7.8687030565       -1.2393027946       -2.8876765053
 C          8.3164113776       -1.5315985378       -4.1632203074
 C          7.7880323624       -0.8656964936       -5.2564077239
 C          6.8004687552        0.0871917187       -5.0693041575
 C          6.3456347371        0.3750785939       -3.7954932246
 C          4.9964682686       -0.0883766159       -1.1350880492
 C          4.4503445220        0.2154650422        0.0975470320
 N          3.0358005595        0.1135061617        0.2975547211
 C          2.5974851070       -0.8087061939        1.2332430843
 O          3.3827362982       -1.5271312212        1.8212942679
 C          1.1432077513       -0.8654512956        1.4591229058
 C          0.6474288712       -1.7096603955        2.4313409429
 C         -0.7212073131       -1.7461422537        2.6902012420
 C         -1.5916370638       -0.9903696854        1.9447543635
 C         -1.1325956288       -0.1618138844        0.9028494703
 C         -1.9992086006        0.6266159035        0.0801431393
 N         -3.3760258020        0.5010376419        0.1584162314
 C         -4.1880111534        1.6318654285       -0.0215492724
 C         -3.8438631100        2.8408516590        0.5815117299
 C         -4.6477469125        3.9501469251        0.4256146086
 C         -5.8230839407        3.8861473530       -0.3216740057
 C         -6.6865833238        5.0651560703       -0.4709985756
 C         -8.0726745719        4.9415581861       -0.4013906245
 C         -8.8857264422        6.0512393123       -0.5362228318
 C         -8.3285924488        7.3011345198       -0.7492306391
 C         -6.9521770721        7.4351395041       -0.8235852489
 C         -6.1368959556        6.3277622899       -0.6824444883
 C         -6.1599347737        2.6734111389       -0.9205873594
 C         -5.3540447678        1.5628291435       -0.7812110813
 C         -3.9781072990       -0.7632748364        0.2519063492
 C         -5.1645683048       -0.9223035724        0.9693720781
 C         -5.7571639272       -2.1655483925        1.0911578644
 C         -5.1459761042       -3.2616225129        0.5035248489
 C         -3.9552801300       -3.1019640922       -0.2221815337
 C         -3.3782914118       -1.8641341372       -0.3667167948
 C         -3.4658330465       -4.4302993389       -0.7496442626
 C         -3.3933653232       -4.4365111643       -2.2789634692
 C         -2.1002072897       -4.7736384726       -0.1445659547
 C         -4.5387142387       -5.3689711157       -0.2433336467
 C         -4.6445535442       -6.7323321473       -0.4125436813
 C         -5.7275581638       -7.3949347377        0.1504104311
 C         -6.6879581791       -6.7018058429        0.8708576861
 C         -6.5896722049       -5.3311756714        1.0462418445
 C         -5.5105922912       -4.6673525516        0.4859300707
 C         -1.4447160024        1.5344412716       -0.8137785429
 C         -0.0738525522        1.6461401016       -0.9726351857
 C          0.7910128279        0.8428283368       -0.2491450979
 C          0.2686769427       -0.0634875186        0.6960007672
 C          2.2346342310        0.9646212110       -0.4576132263
 O          2.7311821811        1.7612173105       -1.2317016673
 C          5.2650933556        0.6294604635        1.1349950768
 C          6.6371003887        0.7362343626        0.9436814340
 C          7.4576131421        1.1743402243        2.0906941459
 C          8.4873682729        0.3795109788        2.5836470411
 C          9.2261905978        0.7884931002        3.6787276616
 C          8.9494976531        1.9984305164        4.2929268368
 C          7.9230124404        2.7939482881        3.8123034034
 C          7.1780398617        2.3822526863        2.7221845000
 H          8.8451734786        0.9434963615       -1.5811686472
 H          9.0375463199        1.4714111938        0.1003480739
 H          9.2396627221       -0.2232661452       -0.3242431751
 H          8.2696882358       -1.7724149725       -2.0386787273
 H          9.0793809060       -2.2831556366       -4.3050744835
 H          8.1416718247       -1.0919117714       -6.2514661219
 H          6.3824060256        0.6069095355       -5.9192009274
 H          5.5771207940        1.1193451597       -3.6442714181
 H          4.3603703753       -0.4158171037       -1.9426906834
 H          1.3408100363       -2.3160348062        2.9938978252
 H         -1.0981850695       -2.3719768668        3.4846519004
 H         -2.6441539887       -1.0223493516        2.1743333738
 H         -2.9447358895        2.8990054890        1.1776607434
 H         -4.3771210385        4.8736148370        0.9155167998
 H         -8.5119527183        3.9716286753       -0.2175110050
 H         -9.9584471339        5.9412617477       -0.4726203563
 H         -8.9644156488        8.1671352096       -0.8568943805
 H         -6.5122243659        8.4067483029       -0.9946200194
 H         -5.0645270827        6.4355524970       -0.7598901839
 H         -7.0514299710        2.6078515345       -1.5264485162
 H         -5.6203461737        0.6342359623       -1.2643971223
 H         -5.6118833672       -0.0602668474        1.4424969300
 H         -6.6730209789       -2.2756934434        1.6515302180
 H         -2.4700415213       -1.7306508130       -0.9347822511
 H         -3.1019027303       -5.4202180777       -2.6387493669
 H         -4.3635252853       -4.1856871311       -2.7027834249
 H         -2.6627272088       -3.7094667709       -2.6262738989
 H         -2.1576599589       -4.7655464751        0.9419672603
 H         -1.7808344298       -5.7612048073       -0.4682675697
 H         -1.3536782272       -4.0459965695       -0.4553941924
 H         -3.9021116493       -7.2826479758       -0.9721128375
 H         -5.8226639645       -8.4633644934        0.0248777082
 H         -7.5219419793       -7.2375359178        1.2998615148
 H         -7.3384862609       -4.7926907510        1.6079202511
 H         -2.1020995920        2.1426879131       -1.4166500391
 H          0.3422676811        2.3414642712       -1.6853844038
 H          4.8400451772        0.8558867200        2.1005352888
 H          8.6934759810       -0.5715002336        2.1158829834
 H         10.0202575308        0.1603635445        4.0554767187
 H          9.5294032385        2.3186396293        5.1458166387
 H          7.7001268674        3.7368465510        4.2902648862
 H          6.3777222975        3.0024345100        2.3441736928
