104
 energy: -159.693789077528 gnorm: 0.000053394457 xtb: 6.7.1 (edcfbbe)
C            8.61987384169052        0.59644492188186       -0.54755991931042
C            7.15052010908248        0.41648441362687       -0.29411564773029
C            6.31583486533478       -0.11661598887082       -1.28093998180581
C            6.83601770700489       -0.57929303426578       -2.58479917844600
C            7.78821581445152       -1.59036189093216       -2.66966230649262
C            8.23975956096328       -2.02642582866213       -3.90251373760945
C            7.75006581661809       -1.45545231171650       -5.06557741055475
C            6.79745350239186       -0.45247298413815       -4.99064710969898
C            6.33824084921760       -0.02116806050300       -3.75900378111146
C            4.94650178486907       -0.21365574515830       -1.06259152360681
C            4.39398699711749        0.22902798503957        0.12553928303316
N            2.98242014853315        0.14258000186920        0.33240983703114
C            2.54080065620003       -0.66017306030217        1.37827203136235
O            3.35254326113472       -1.28994350032142        2.06114448488746
C            1.10929317784380       -0.71812912920173        1.58648725101141
C            0.60027557038411       -1.46048247165995        2.66569742945211
C           -0.75557785957831       -1.49613879762508        2.89523537791665
C           -1.64066474322646       -0.84290432519283        2.04403586552880
C           -1.17774809577282       -0.13357666345065        0.92774794516997
C           -2.03203524193700        0.55306529556005        0.01145970391974
N           -3.42431826628896        0.44365327495437        0.08396354254579
C           -4.18168216198985        1.59976649490598       -0.04876364851922
C           -3.70971446874714        2.80956414891090        0.47846257831015
C           -4.43910349993112        3.96573248464420        0.32688150688393
C           -5.66142940089691        3.96526344354147       -0.35423185988295
C           -6.43177334769528        5.19978013881097       -0.52108724276754
C           -7.82520002571855        5.18778417772928       -0.43678263758101
C           -8.54935221669684        6.35412186377934       -0.59418455718834
C           -7.89803754135032        7.55066685397421       -0.84975535027843
C           -6.51508939301150        7.57434980062301       -0.94064020972881
C           -5.78679627303913        6.41198527603603       -0.77289497611026
C           -6.12516525702244        2.75438525859825       -0.88027343398420
C           -5.40307418686567        1.59259348303442       -0.73670369780895
C           -4.02383694575663       -0.79687221396164        0.19966035617317
C           -5.25862962476290       -0.93399061554163        0.85943304543780
C           -5.84984152595604       -2.16895813201472        1.00365784863558
C           -5.20855773399739       -3.29107400611714        0.48614783699383
C           -3.96933916755324       -3.15988172397138       -0.17515305186002
C           -3.37684798875043       -1.93387830576521       -0.31905629717173
C           -3.47597662718270       -4.50632877293730       -0.65295801464952
C           -3.35547968752269       -4.54172861497420       -2.18078787087736
C           -2.13521578860730       -4.86301701670253       -0.00120788431158
C           -4.58018038670808       -5.41962366351441       -0.16928624816477
C           -4.69254978298338       -6.78666715586314       -0.29957963030881
C           -5.80948297071601       -7.42095216198930        0.23096163502614
C           -6.80024241797385       -6.69731750005971        0.88260329635778
C           -6.69849323337002       -5.32439317972844        1.01955590343694
C           -5.58303598915782       -4.68583909530299        0.49111320415747
C           -1.48410436330320        1.35940571648026       -1.00670806645882
C           -0.13213076833817        1.46424712604004       -1.17466054328591
C            0.74778520381473        0.75696058653824       -0.32309928302529
C            0.23012891646173       -0.03619432602492        0.72193917850882
C            2.17215724595717        0.87564559695786       -0.52791926765750
O            2.67552966485042        1.59030192247352       -1.40134489719605
C            5.21001616816568        0.75940650285108        1.10880502782037
C            6.58344222426898        0.83830029754721        0.91230649672211
C            7.40557811248697        1.39414157986750        2.00853961856148
C            8.39675953477127        0.63073339135663        2.61753347935805
C            9.13823233578929        1.14933979646913        3.66381854887045
C            8.90254091832798        2.43832612439803        4.11280800456037
C            7.91405392994597        3.20353735484147        3.51646530614342
C            7.16675135491201        2.68332575615697        2.47469717722177
H            8.80803186362007        0.73392511958390       -1.60979810868283
H            8.99466309287788        1.46017892819021       -0.00302554624620
H            9.18127634314058       -0.27633333523401       -0.21683683700448
H            8.16017282887877       -2.04589244659095       -1.76390090609187
H            8.97610114306983       -2.81548958632571       -3.95575511574084
H            8.10676246217096       -1.79320324474580       -6.02775660394389
H            6.40860334387008       -0.00564502312950       -5.89462300916536
H            5.59466603751087        0.76118687431562       -3.69502062680350
H            4.30863955480302       -0.63181873820555       -1.82806753801449
H            1.30281925464264       -1.97504366511154        3.30326723789713
H           -1.14476404790985       -2.04541977841799        3.73983544943147
H           -2.69643831931430       -0.88914177486633        2.25808303111583
H           -2.77944994757708        2.81646675708740        1.02666834687603
H           -4.07506942409963        4.88142908834777        0.76693063362778
H           -8.33929425533991        4.26329223564502       -0.21922583226996
H           -9.62674168243300        6.33235913853572       -0.51709975067739
H           -8.46534537333438        8.46082122146563       -0.97725493191770
H           -6.00313864603028        8.50362121897992       -1.14485934646844
H           -4.71095741046539        6.43564470806647       -0.86548548195276
H           -7.04615350564110        2.73838624551245       -1.44251763829787
H           -5.75425717466659        0.67558114641245       -1.18543993273480
H           -5.72200976818917       -0.05901955627124        1.28983924185457
H           -6.78901878841228       -2.26354079982536        1.52594521701823
H           -2.43772498826244       -1.81806247180796       -0.83779235927108
H           -3.06741374909756       -5.53678925937516       -2.51004337407964
H           -4.30664484487043       -4.28437244908192       -2.64237970994010
H           -2.60068502755767       -3.83394207427684       -2.51462895957876
H           -2.22421797593679       -4.85039984722463        1.08309321982086
H           -1.81939289373317       -5.85584495178111       -0.31152371240766
H           -1.36860353947018       -4.14859879724400       -0.29216977277209
H           -3.93001277597132       -7.36233187540483       -0.80271509912836
H           -5.90887323466976       -8.49234559554700        0.13521069504526
H           -7.65797034516202       -7.21469051250159        1.28690030680464
H           -7.46798951652061       -4.76282407338381        1.52729938149049
H           -2.15641999911827        1.86055556530677       -1.68755634708590
H            0.29970810869289        2.06259096206646       -1.96137193321491
H            4.77950216491862        1.09543575188965        2.04128526075670
H            8.56997764333495       -0.37973625898896        2.27797351363140
H            9.90186902214767        0.54481217183074        4.13185373228810
H            9.48437982709791        2.84398183763663        4.92765873150419
H            7.72286598042836        4.20860176443573        3.86473749892895
H            6.39604028572847        3.27927727508719        2.00581446378679
