104
 energy: -159.753935239823 gnorm: 0.000062719654 xtb: 6.7.1 (edcfbbe)
C            8.68906362675856        0.66448351616359       -0.55327737900457
C            7.22403245111461        0.47882267690313       -0.28422408789644
C            6.37435080518565       -0.01752297976214       -1.27754201080329
C            6.87453282884593       -0.43022877387703       -2.60595418481524
C            7.81542171484227       -1.44597232531151       -2.74317755893121
C            8.24724344648675       -1.83569699166386       -3.99841963089669
C            7.74939840818269       -1.21276648584112       -5.13102645559570
C            6.80861544768447       -0.20395122661520       -5.00361424422885
C            6.36847393732441        0.18080288473078       -3.74974003660120
C            5.00808461611422       -0.12132513105285       -1.04267774274937
C            4.47877960825729        0.27295888842750        0.17184440449221
N            3.06561143757346        0.17453819733332        0.39909267591721
C            2.64200848661609       -0.74786066220963        1.34045551769049
O            3.44814862988203       -1.45089543098269        1.92839558187775
C            1.19476593139515       -0.82637373640910        1.56935923766511
C            0.71091972149015       -1.68151704332479        2.54148881525080
C           -0.65613328499803       -1.74304236708623        2.79624413925304
C           -1.53823904738058       -1.00296097389979        2.04581220938820
C           -1.09264267433276       -0.15998894288678        1.01101571654550
C           -1.97469892932821        0.62819783969993        0.19997304479839
N           -3.34404098934280        0.47910600464128        0.27271406068612
C           -4.17797676299072        1.59650193668905        0.07610484634740
C           -3.88671156726152        2.80202098566247        0.71264385563449
C           -4.70622171666188        3.89730300493286        0.53509502654386
C           -5.84263552374833        3.82086008021182       -0.26969783318633
C           -6.71317837939137        4.99006641959688       -0.45951280308560
C           -8.09980619201732        4.85077040560919       -0.46731281697506
C           -8.91691462990362        5.95074786059582       -0.65211831365410
C           -8.36335758526529        7.20685357972904       -0.83877006241030
C           -6.98621985192118        7.35688484648057       -0.83389895406938
C           -6.16735775523731        6.25922689784370       -0.64283165496666
C           -6.13057479461245        2.60827642371440       -0.89466792915397
C           -5.30976442870831        1.51120238505187       -0.73149632633141
C           -3.94000084195853       -0.79398656529733        0.34387933781758
C           -5.11704067579952       -0.97003625806572        1.07235935219072
C           -5.72467963647327       -2.21015558706105        1.14426419841127
C           -5.14328867694423       -3.28250502961820        0.48576586925942
C           -3.96164235601893       -3.10569890265612       -0.25168087628310
C           -3.36231907862176       -1.87131546574628       -0.33388958447695
C           -3.52430007669418       -4.40688725219684       -0.88505050862256
C           -3.50615552305774       -4.30099812207440       -2.41380751459968
C           -2.14925168565845       -4.83625002084166       -0.36102541513606
C           -4.60847694756971       -5.35078468246986       -0.41234056526221
C           -4.75545220240937       -6.69731530005824       -0.66800379103663
C           -5.84011475563547       -7.36970021845684       -0.11932154907030
C           -6.76265615290639       -6.70294958022697        0.67272775135302
C           -6.62415885033658       -5.34920582654211        0.93381905535392
C           -5.54308590662892       -4.67580369117729        0.38783242113992
C           -1.43072047671554        1.56749571244451       -0.67351118735097
C           -0.06462830669157        1.69706974178522       -0.83517313497053
C            0.81644541884314        0.89123278722552       -0.12711463501727
C            0.30833781980606       -0.03408128977002        0.80844175250361
C            2.25035679920411        1.02569332875761       -0.34272666055344
O            2.74609179270222        1.83017787947490       -1.11713436121232
C            5.30708473054780        0.76553484228797        1.16318875801953
C            6.67683880432153        0.85657686085789        0.94594930113095
C            7.51615923997407        1.37929948434494        2.04566956204533
C            8.51423616189286        0.59737858546747        2.61859721974271
C            9.27282633486788        1.08669566992258        3.66679707941478
C            9.04765161242128        2.36424225350607        4.15254249601526
C            8.05258562121963        3.14751586104050        3.59153104974981
C            7.28740034168802        2.65644047565911        2.54858246607791
H            8.86160438304662        0.84327251673698       -1.61195484783273
H            9.07631936937736        1.50396614211853        0.01950474223829
H            9.25139542355648       -0.22311902730587       -0.26665287409736
H            8.19414090344381       -1.94167270823041       -1.86173804012144
H            8.97460074511430       -2.62906541489114       -4.09334765856571
H            8.09099481520254       -1.51454658456634       -6.11044932668537
H            6.41433180719860        0.28352947468413       -5.88382227444514
H            5.63504063549032        0.96832792766958       -3.64550892491394
H            4.35801088127565       -0.50892064203278       -1.81391916347872
H            1.41532082563890       -2.27583003100633        3.10419064114957
H           -1.02364692367089       -2.37763412682081        3.58768334367658
H           -2.59136656854357       -1.05999743125387        2.26891536273966
H           -3.01635616144248        2.87024357325530        1.34903048716953
H           -4.47749357317300        4.81916603100045        1.04867411090102
H           -8.53877868009397        3.87669915878605       -0.30686649078018
H           -9.99064662756857        5.82858931541800       -0.64991645152936
H           -9.00228366982016        8.06525841380114       -0.98691102124129
H           -6.54854885497614        8.33374513458785       -0.98249940778073
H           -5.09386434712956        6.38104801189537       -0.65795890196845
H           -6.99264560453656        2.53305111278539       -1.54048544200406
H           -5.53688047408859        0.58366249782330       -1.23570599471322
H           -5.54717674514790       -0.12439367904217        1.58859479960591
H           -6.63323026673999       -2.33574736363538        1.71318520479362
H           -2.46064309027509       -1.72080791430594       -0.90901411141957
H           -3.25986763989513       -5.26395104221835       -2.85446532964151
H           -4.48174361202602       -3.98978174137642       -2.78209349542230
H           -2.76386636493116       -3.57300238300488       -2.73265245092791
H           -2.16931714141491       -4.92481415008824        0.72329599778521
H           -1.87010126094355       -5.79894505077465       -0.78227558834597
H           -1.39293562179923       -4.10423248727274       -0.63547128875502
H           -4.04359768730371       -7.22867995661376       -1.28289735431005
H           -5.96616686184792       -8.42557416306929       -0.31145882491893
H           -7.59827519974321       -7.24633497087252        1.09026204059559
H           -7.34420210025063       -4.83228156454623        1.55089715546329
H           -2.09462497351700        2.18056380785413       -1.26386580293110
H            0.34164116521728        2.40754768222944       -1.53952957187337
H            4.89171172694994        1.06619416603287        2.11431266432062
H            8.68067909440037       -0.40376127569418        2.24952692266445
H           10.04225612773050        0.46877987078573        4.10686561469161
H            9.64345423995645        2.74739386488657        4.96817455436646
H            7.87048698562739        4.14388365160669        3.96829819150833
H            6.51217305671429        3.26718255307285        2.10716306709712
