104
 energy: -159.753606732568 gnorm: 0.000050323146 xtb: 6.7.1 (edcfbbe)
C            9.21733771915663       -0.37966446527457       -0.64091031418032
C            7.74091990697722       -0.31325278708254       -0.37753922947278
C            7.24622691358019       -0.35879640103887        0.92968608675524
C            8.13244770314781       -0.53334350836735        2.09965588116645
C            8.12931934822971        0.42283857661181        3.11149691043376
C            8.94031657552113        0.27168588901033        4.22208012416541
C            9.75555443612561       -0.84188736457776        4.34180997936997
C            9.75292454939062       -1.80571878185602        3.34697264184406
C            8.94839729925402       -1.65266663827243        2.23190284448501
C            5.88345154365051       -0.21957525025929        1.16809883806554
C            5.00932367724889       -0.02301544488679        0.11550378688987
N            3.60752547343874        0.14539672527000        0.36770999130445
C            3.22729279289831        1.27289864272101        1.07557281002181
O            4.05982240019878        2.08436365815404        1.44828707201552
C            1.79080368691545        1.42863318087633        1.33068381339579
C            1.35141408153938        2.49779574971990        2.08852749122665
C           -0.00483685885652        2.64412131951116        2.36569584273613
C           -0.92146201040434        1.76571088492446        1.83925081880843
C           -0.52258848848787        0.69530113107440        1.01767752240533
C           -1.44155569979588       -0.24250143426828        0.44121518286485
N           -2.80554525909787       -0.05664805015534        0.52099097402449
C           -3.39405540329788        1.20378277436424        0.31634498784706
C           -2.84502456416991        2.10540699396800       -0.59427117113458
C           -3.43667032269760        3.33526772967718       -0.79608021308520
C           -4.59248501184664        3.69988686481349       -0.10635355127171
C           -5.21707691727538        5.01392856680329       -0.31917928914791
C           -5.72184229046117        5.74146513741381        0.75719671667067
C           -6.30809722493480        6.97790601129227        0.55901091279494
C           -6.40472261544544        7.50697314238367       -0.71766090079950
C           -5.90817068186155        6.79198013347250       -1.79524094542221
C           -5.31636887029933        5.55792844299198       -1.59838998577078
C           -5.14253453308460        2.78555905610500        0.79133673732770
C           -4.55622569107383        1.55457345513842        1.00204241905904
C           -3.65614851163704       -1.17740221713418        0.61631705512171
C           -3.35544889817693       -2.19257849785968        1.52489843629755
C           -4.18212406200742       -3.29334653889563        1.65420267343981
C           -5.32439724612936       -3.37091470939665        0.87209861331314
C           -5.63003260249502       -2.34805032203040       -0.03925776550827
C           -4.80363733377650       -1.25724584982564       -0.17541689821929
C           -6.91678503434260       -2.64868183043546       -0.77361823193761
C           -7.97227793342171       -1.57361019572407       -0.49095443688830
C           -6.67647389736865       -2.77900763053221       -2.28170258901895
C           -7.30709365280469       -3.97718657224669       -0.16362992045128
C           -8.40583029881628       -4.76416385621969       -0.43487045231888
C           -8.56121879914492       -5.95980357415546        0.25482536442021
C           -7.62937308447887       -6.36071775562236        1.20033519672809
C           -6.52161136462255       -5.57652729238743        1.47965205237525
C           -6.36465471985969       -4.38242199562840        0.79416716404661
C           -0.93992245307831       -1.37170346797415       -0.20265077645546
C            0.41795601939857       -1.56556706616605       -0.36748778521561
C            1.33290946598370       -0.63467396392246        0.10516258004369
C            0.86878550911602        0.49670197522227        0.80755088617797
C            2.75691231698119       -0.84846671466785       -0.11151865900626
O            3.21594978331198       -1.83177427630396       -0.67220734800577
C            5.48439836011745        0.01988822829873       -1.18243998831484
C            6.84179234663273       -0.13932778036124       -1.43440545343028
C            7.28961024107577       -0.09742312348533       -2.84291641510615
C            7.03535600297974        1.02893458537605       -3.61951227296285
C            7.42801598174219        1.07077606970950       -4.94558600631618
C            8.06868307091588       -0.01695351769230       -5.51551897899942
C            8.31361573683698       -1.14729760563556       -4.75322865961382
C            7.92937256851386       -1.18732291613929       -3.42492634538202
H            9.53776022578563       -1.40772282674668       -0.80355282642472
H            9.46931952490264        0.19254555668775       -1.53086156063191
H            9.77268125785122        0.01443270664505        0.20689205632805
H            7.49371933828903        1.29188999868162        3.01366627580814
H            8.93475360463204        1.02486063080881        4.99701599828945
H           10.38757600674515       -0.95964218500768        5.21001290706773
H           10.37962616007430       -2.68099519511360        3.44031367952084
H            8.93673187988225       -2.41223934021841        1.46452328499146
H            5.50840379377171       -0.25928256174773        2.18062854447885
H            2.08165267271045        3.19510039921167        2.47139298449782
H           -0.33617104993240        3.45379954244832        2.99712604362765
H           -1.96516181050249        1.89270913776270        2.07763051366801
H           -1.95213256245644        1.83637483254794       -1.13964507315073
H           -2.98886898796686        4.02827180054341       -1.49247334713976
H           -5.63439114583177        5.34349048157596        1.75783463347906
H           -6.68966666987265        7.53333065224913        1.40388265365395
H           -6.86494867685330        8.47203976159476       -0.87217722070492
H           -5.98421242455991        7.19781913420634       -2.79400075100278
H           -4.94624406632549        4.99920024286997       -2.44588396014863
H           -6.04873132404563        3.03754130056182        1.32150698395831
H           -4.99216981095583        0.85725671427519        1.70221201970975
H           -2.46526912457591       -2.10810716972894        2.13129968465008
H           -3.94045922316692       -4.07173241628034        2.36183894376159
H           -5.02395440820228       -0.47041331640456       -0.88107401087038
H           -8.14339953291312       -1.48541582299088        0.58010269237410
H           -7.64035843882379       -0.61050023321804       -0.87153532022007
H           -8.91197969679566       -1.83382418136007       -0.97191684103920
H           -5.92667669878128       -3.54257235990841       -2.47968383470393
H           -7.59774848076818       -3.05878246798822       -2.78673850032311
H           -6.32812798203551       -1.83376995863480       -2.69096184107182
H           -9.13855455750204       -4.46374399117834       -1.16970494379411
H           -9.41843647438033       -6.58563830547797        0.05190132178106
H           -7.76952875145598       -7.29548612312065        1.72428606512597
H           -5.79722992297626       -5.89162807220370        2.21632747525009
H           -1.63189359606686       -2.09206206949242       -0.61166297809244
H            0.79130960411640       -2.43097202076879       -0.89437654868532
H            4.79762369555751        0.16232326455925       -2.00437942315906
H            6.53788389434616        1.87789702129006       -3.17147954803332
H            7.23146848429204        1.95427233752383       -5.53606977272815
H            8.37284946252659        0.01524225974251       -6.55159934275450
H            8.80493018456625       -2.00197227727155       -5.19559383761574
H            8.10787745206587       -2.07435640930718       -2.83551010389750
