  55
        -80.12771949
 C         -5.3106925189        0.0977118552       -0.7752306569
 C         -3.7952868620       -0.0957012097       -0.8103360719
 C         -3.3736286485       -0.3575595289       -2.2736118324
 C         -3.3341264175       -1.2698773030        0.0249751840
 C         -4.1664429992       -2.2818981774        0.4723657149
 C         -3.6683271962       -3.3527706029        1.1971862912
 C         -2.3172329382       -3.4152172587        1.5025084667
 C         -1.4691273041       -2.4178762845        1.0731386702
 C         -1.9635753912       -1.3510722438        0.3179366257
 N         -1.1243205597       -0.3059540293       -0.0569445309
 C          0.2212943638       -0.4993405753       -0.2804294627
 C          0.6561368476       -1.7022518699       -0.8335347309
 C          1.9905337973       -1.9530616076       -0.9957334158
 C          2.9678583788       -1.0273135085       -0.5153026804
 C          4.3106942193       -1.3249100853       -0.6215448349
 C          5.3082204064       -0.4217893247       -0.1431290241
 C          6.6612654638       -0.7322530524       -0.2554905260
 N          7.7844513069       -0.9876003386       -0.3490416133
 C          4.8921769940        0.7663876897        0.4563413368
 C          3.5575618086        1.0776072592        0.5618313491
 C          2.5277768485        0.2179115681        0.0544277998
 C          1.1671503779        0.5376773354        0.0671363217
 C          0.6369154866        1.8872966020        0.4966793131
 C          1.3768637949        3.0208465508       -0.2561335336
 C          0.7724146765        2.0130681648        2.0330090631
 C         -0.8417626301        2.0579505600        0.2189204347
 C         -1.4314604274        3.3114090807        0.3115402806
 C         -2.7877909986        3.4742199653        0.1090458683
 C         -3.5837785551        2.3874859996       -0.2273415645
 C         -3.0374054825        1.1240939223       -0.3271800657
 C         -1.6657670218        0.9655545236       -0.0594051246
 H         -5.5970817298        0.9330174071       -1.4086627962
 H         -5.6563788013        0.2851570611        0.2389179317
 H         -5.8117640526       -0.7846494442       -1.1642558690
 H         -3.6515235451        0.4890122875       -2.8975529343
 H         -2.2994221062       -0.5044101852       -2.3526918514
 H         -3.8719497936       -1.2487825216       -2.6486372384
 H         -5.2222340743       -2.2488024150        0.2590999605
 H         -4.3364964791       -4.1318331328        1.5295369007
 H         -1.9266637786       -4.2348173451        2.0853702861
 H         -0.4225857881       -2.4403020443        1.3353030447
 H         -0.0777786795       -2.4268460232       -1.1551939673
 H          2.3276879085       -2.8626397538       -1.4661578150
 H          4.6233868767       -2.2544004168       -1.0722051460
 H          5.6339958027        1.4462453429        0.8517030808
 H          3.3029494560        1.9909898303        1.0667912786
 H          1.5544562197        3.8732289532        0.3945954198
 H          2.3284951564        2.6809568924       -0.6484072430
 H          0.7785864854        3.3519991100       -1.1026831976
 H          0.4359183069        2.9933441291        2.3620151933
 H          0.1489976785        1.2596879568        2.5128375402
 H          1.7942296917        1.8599363471        2.3621467509
 H         -0.8273508457        4.1716372447        0.5512306340
 H         -3.2306178209        4.4543258450        0.1955413016
 H         -4.6320163153        2.5494635518       -0.4147411109
