83
 energy: -128.588981873286 gnorm: 0.000049308347 xtb: 6.7.1 (edcfbbe)
C            6.40118778841159        0.86146046920622       -1.21577855647820
C            5.47941401505086        0.88489193007199        0.01746022542287
C            6.31601105288919        0.95442560347850        1.30835506722134
C            4.60457790177214        2.12303593381958       -0.05518759769451
C            5.19724737919407        3.37794236790666       -0.08374970267362
C            4.45202231698231        4.54167698000552       -0.13257448435495
C            3.07132565411130        4.46136407748677       -0.14560096254681
C            2.45583261329329        3.22795065247173       -0.11817356385193
C            3.20827470500232        2.05066499606087       -0.08235527403048
N            2.56078999069827        0.82715640146527       -0.06225618995725
C            1.14021488980883        0.78655205642257       -0.03335696664760
C            0.40706360692859        0.91518699651580       -1.20271977907532
C           -0.97383520613168        0.84440535759864       -1.16897184697329
C           -1.64703357025640        0.64700107733845        0.02970674447840
C           -3.17051997331589        0.50643916395951        0.08154380362295
C           -3.80765520213380        1.35058024488551        1.17635176927623
C           -3.17661910997732        2.45183305551895        1.73957402624449
C           -3.82181100432497        3.21866845873935        2.69546872109991
C           -5.10897632795383        2.90368057133506        3.09230849170410
C           -5.75521417275645        1.82253795878270        2.51667820300236
C           -5.11164007274120        1.05709393251919        1.56249580983872
C           -3.77731883895716        0.94876849310414       -1.23527119784881
C           -4.04224907802633        2.29382547211336       -1.46756282809688
C           -4.56297901753601        2.71897616598334       -2.67631522456212
C           -4.81693406189691        1.80787883910379       -3.69054295962753
C           -4.53822450079393        0.47383540903350       -3.48363595708160
C           -4.02117522423971        0.03637613510284       -2.26408989620333
C           -3.74021654665431       -1.40421639125658       -2.10321985293179
O           -3.67651791578842       -2.16491517673299       -3.05083524707428
C           -3.60930527150758       -1.86400697456254       -0.70729525769759
C           -3.74426843663532       -3.23013259727565       -0.45410283617803
C           -3.69351399396690       -3.71482911253233        0.83526868724838
C           -3.51019124796144       -2.82729866457907        1.88501157196266
C           -3.36714766773821       -1.47392130809399        1.64061488699338
C           -3.41108228197068       -0.96890552411131        0.34528665028511
C           -0.90040549343445        0.52071850872160        1.19723425766299
C            0.47719361865371        0.60014128943232        1.17197391719984
C            3.26352548581340       -0.36300138077898       -0.01708850069151
C            4.66045076533563       -0.39380029752745        0.03406114298213
C            5.32822147874584       -1.61902493257589        0.09088656232129
C            4.67597376878830       -2.83212892040982        0.09249839849476
C            3.28936392934428       -2.81932052814333        0.02049600827933
C            2.60274002355976       -1.59713241725332       -0.03811156611921
O            1.24857332204242       -1.79329183226552       -0.12189386651792
C            1.05455715973716       -3.13673566571018       -0.11494188887890
C           -0.16411452435226       -3.78648483564834       -0.18420312658370
C           -0.14324993209775       -5.16891630722269       -0.15800338377415
C            1.05312769133238       -5.87660233077083       -0.06679793189301
C            2.26895052047878       -5.22452817713171       -0.00043583923923
C            2.27261035700538       -3.83607611541174       -0.02455524425719
H            7.06212189632775       -0.00024186767912       -1.19265147115149
H            5.80202566596786        0.81008300229425       -2.12281783681569
H            7.01329521976892        1.75787083706068       -1.25943648882518
H            6.92779889041861        1.85200561536556        1.32557756251161
H            6.97275103821102        0.09337125536655        1.39388369288004
H            5.65740067306008        0.97129868700333        2.17465571842733
H            6.27367776213512        3.45760633412855       -0.06535713968211
H            4.94645774485436        5.50079521308120       -0.15530422692389
H            2.47048253450455        5.35817512278352       -0.17577472511354
H            1.37817658382004        3.16850681672225       -0.12357628081529
H            0.92104068456406        1.06126787590879       -2.14114561699465
H           -1.52017129785646        0.93894772511791       -2.09471637329737
H           -2.17635793721215        2.71955159381286        1.43154226223916
H           -3.31441134347068        4.06903532855389        3.12713846166808
H           -5.60926941983025        3.50148970292665        3.83945274201893
H           -6.76532325314582        1.57627513339696        2.80885978836296
H           -5.62416912411059        0.21959814418909        1.11060395723719
H           -3.84056809657459        3.01940175633668       -0.69396137099443
H           -4.76828463699641        3.76843626426667       -2.82789002960537
H           -5.22181436794999        2.14122292722405       -4.63412244545471
H           -4.70880820953631       -0.26329419291604       -4.25427332397041
H           -3.89195991945566       -3.88739145266318       -1.29840989266017
H           -3.79871753393750       -4.77175683570007        1.02748032999262
H           -3.47914812500721       -3.19114646884914        2.90136508704525
H           -3.24276177106479       -0.80082789346632        2.47551405350811
H           -1.39553652652448        0.36310540368751        2.14248697538184
H            1.04710297396589        0.49916720989757        2.08395962221949
H            6.40614658671612       -1.62103162186701        0.13592125501430
H            5.22015330752191       -3.76150681882740        0.14018740460447
H           -1.08340327482995       -3.22914133372324       -0.25843226057786
H           -1.07590665326232       -5.70969131077926       -0.21227412116214
H            1.02607812400217       -6.95606681711944       -0.04996253851354
H            3.19485244307006       -5.77491744370073        0.06782481360594
