83
 energy: -128.510189063442 gnorm: 0.000156317877 xtb: 6.7.1 (edcfbbe)
C            6.53647804579461        1.05667924033123       -1.27535080728224
C            5.62486710259646        1.10371933802781       -0.03433316996748
C            6.47291607250595        1.22335083688307        1.24628963201646
C            4.73502862877144        2.32591937187938       -0.13629132057941
C            5.30624404847630        3.58892441509273       -0.21038075059454
C            4.53887348981795        4.73588830475091       -0.29842249665786
C            3.15738601058879        4.63331832145255       -0.31224710263982
C            2.56225610261632        3.39372292442202       -0.23954824693492
C            3.33730918303635        2.23051491651175       -0.15286823896431
N            2.71108031765877        1.00285481660158       -0.08344216142021
C            1.28643445659616        0.95229456069274       -0.05126302638780
C            0.55966471773223        0.89200930698521       -1.22925923797644
C           -0.82119692238744        0.82447115743224       -1.18542121586907
C           -1.49691144370173        0.81580666436884        0.02834965314711
C           -3.02174153577907        0.70929958041601        0.10732381599348
C           -3.65244791411604        1.99107185264262        0.61876118754488
C           -2.94260319727715        3.17153045034831        0.78761854180456
C           -3.58132686801857        4.31778082717339        1.23192849604449
C           -4.93639019929260        4.30069037588371        1.50786190603167
C           -5.65527745368313        3.12918221312648        1.33093141351169
C           -5.01899173002341        1.98639893757130        0.88751481856898
C           -3.58133627712464        0.39093210669068       -1.26495024068667
C           -3.96938384769079        1.40361314165197       -2.12620623466772
C           -4.36623264260750        1.12885054496603       -3.42637767710411
C           -4.35612595534964       -0.18148457339626       -3.88829281890010
C           -3.97532680453431       -1.20511789098125       -3.05441344479993
C           -3.60449203242610       -0.93740557645165       -1.72383965121327
C           -3.30025062977645       -2.04971454239082       -0.85379068019353
O           -3.14604763863359       -3.22568358942671       -1.29664163825367
C           -3.30199360552767       -1.76228825190209        0.56175406758293
C           -3.36801442521931       -2.83897157356505        1.46684533617134
C           -3.49403995101934       -2.60689278148557        2.81457348374513
C           -3.56245102045253       -1.30506626705387        3.29458072503483
C           -3.46021398997530       -0.23962819293437        2.41241304913888
C           -3.30794515610407       -0.44533887152678        1.05163238970955
C           -0.75208953890997        0.88848888979889        1.20214219996932
C            0.62538363530815        0.96167967936889        1.16909425481759
C            3.42330784500546       -0.17294161833539       -0.00225689078854
C            4.82617928966217       -0.18391392307590        0.02978434185440
C            5.50852634618701       -1.39655542503788        0.12115120254251
C            4.86739608939220       -2.61647957653145        0.17886604061761
C            3.47953989862337       -2.62532816009713        0.13849156287924
C            2.77239203412141       -1.41512619313340        0.04832892811252
O            1.42795235070861       -1.62949282025891        0.01254080587538
C            1.24720386949511       -2.97692020308482        0.07514236580113
C            0.03663147185591       -3.64603600346728        0.05576010745526
C            0.08144469416573       -5.02580094600889        0.12542024163910
C            1.29055062120903       -5.71365659020735        0.21390256120078
C            2.49764349008069       -5.04340234888683        0.23103439150335
C            2.47724895575573       -3.65620513461174        0.15916908612225
H            7.20873014951789        0.20497821411527       -1.23160265988585
H            5.93141596005118        0.97091988865823       -2.17570155404485
H            7.13599357985192        1.95927151418052       -1.34925965347391
H            7.07027683749898        2.13032060561674        1.23077456725763
H            7.14391400237657        0.37559047068338        1.34826505677047
H            5.82338461503187        1.25433560421249        2.11885086218774
H            6.38074574448804        3.68826241461284       -0.19842394575372
H            5.01614723406484        5.70193250235928       -0.35471111329403
H            2.54407502139412        5.51882102625263       -0.37957813737279
H            1.48677997315743        3.31253166387305       -0.25040445754781
H            1.07659175447441        0.88948950816938       -2.17761306575973
H           -1.37064723454572        0.77738158347403       -2.11260989000138
H           -1.88541030996701        3.20418622450125        0.56775863570333
H           -3.01434697705845        5.22881002626102        1.35927639194275
H           -5.43192636203026        5.19553649786684        1.85448972107638
H           -6.71522729496005        3.10800466481630        1.53751638182865
H           -5.58015613110134        1.07394012715853        0.74549328076815
H           -3.94265942320938        2.42839493309730       -1.78373450289609
H           -4.66655953661568        1.93620602439707       -4.07707657623800
H           -4.65350114934067       -0.40074578118241       -4.90367419695514
H           -3.96916710646271       -2.23119849489311       -3.38834603292914
H           -3.34280086193650       -3.84196844760931        1.06904931927775
H           -3.55523859330256       -3.44123524155322        3.49831228845286
H           -3.68282199734815       -1.11674271088433        4.35082568569333
H           -3.49943776211722        0.77057431279009        2.79679053564335
H           -1.25446104769005        0.88356323100670        2.15684305073533
H            1.19505665360068        1.01539644955180        2.08540439031838
H            6.58670305318962       -1.38680231872550        0.14823377148042
H            5.42426158350913       -3.53674354142916        0.24940088902751
H           -0.89419324065527       -3.11180523625639       -0.02172829961689
H           -0.84408264937409       -5.57947525714929        0.10316486230910
H            1.28020366679746       -6.79212373656986        0.26610492464916
H            3.43379973174391       -5.57662544425892        0.29533708064104
