83
 energy: -128.589005917185 gnorm: 0.000045864025 xtb: 6.7.1 (edcfbbe)
C            6.58982073389219        0.97090645097006       -1.21827619661927
C            5.64565738041676        1.07058701922833       -0.00602440532479
C            6.45807428044701        1.23554572690560        1.29172888029704
C            4.76280484643762        2.29326082099628       -0.17654515217696
C            5.34743232324565        3.54765403590671       -0.28466514514130
C            4.59526047131676        4.70024706111298       -0.41727444270979
C            3.21529202782081        4.60936251164775       -0.43333792724162
C            2.60779618964779        3.37618504413144       -0.32801741571243
C            3.36725133379367        2.20868264114712       -0.21047791090757
N            2.72837154378490        0.98365856694176       -0.11657365263601
C            1.30959109423747        0.93615840257579       -0.05495843454820
C            0.54668228753874        1.02690586132857       -1.20863074509133
C           -0.83318123901452        0.95523390050467       -1.13818625752675
C           -1.47442673051735        0.78967033064670        0.08218605739625
C           -2.99683999804310        0.66614601830082        0.19347898424110
C           -3.59578738065975        1.70992200975348        1.12418614459045
C           -2.90372949926497        2.83997085285619        1.53656978684911
C           -3.51486381493600        3.77827478272803        2.35208412514875
C           -4.82580415932558        3.60463352433546        2.75745732259113
C           -5.53017156689915        2.48978069797272        2.33328019684538
C           -4.92117550422708        1.55368438458781        1.51942403275901
C           -3.63155018387981        0.83659185466265       -1.17171136804331
C           -3.99815784107364        2.09565487606936       -1.63234560176567
C           -4.53477327167095        2.26056207256318       -2.89699708596867
C           -4.69871335697120        1.17035525314070       -3.73807686268415
C           -4.31975560014477       -0.08217592013650       -3.30275458681508
C           -3.79044294239148       -0.25772822469966       -2.02497358537934
C           -3.41613070524589       -1.62163459521818       -1.60025235700147
O           -3.23985258890858       -2.52933850793458       -2.39046298618051
C           -3.35139796586503       -1.81432959727186       -0.13802071903735
C           -3.46252508090570       -3.11285807438820        0.35991728795782
C           -3.47034161523120       -3.34498140694091        1.71880882950511
C           -3.38011479351706       -2.27003839290260        2.58970149931579
C           -3.26123450874760       -0.98061478096192        2.10287524444804
C           -3.23706550447811       -0.73133667439996        0.73534294440209
C           -0.69839168943199        0.70411472918254        1.23433213327210
C            0.67741568282866        0.78634619993361        1.17226437086364
C            3.44019529259095       -0.19555554648864        0.01230187752914
C            4.83635442421715       -0.21110120720119        0.08338668499509
C            5.51293925581823       -1.42422021207486        0.22822646902625
C            4.87003488433437       -2.64023570747123        0.29718142714080
C            3.48488242422685       -2.64427447908990        0.20084074703916
C            2.78926153988032       -1.43448961654393        0.05514021851805
O            1.43881349033314       -1.64825418452141       -0.04195073774264
C            1.25578059122134       -2.99120867404900        0.04346907812590
C            0.04490911881991       -3.65718960187277       -0.00898579436592
C            0.07830086715604       -5.03502499383543        0.10323623284507
C            1.27906735308990       -5.72348785970325        0.26036814163133
C            2.48711376053471       -5.05585301610205        0.30892344989851
C            2.47790544723350       -3.67148731134821        0.19971979636879
H            7.26012055962812        0.12162390280064       -1.12200709335108
H            6.00776476907204        0.84713609224265       -2.12943864392330
H            7.19258691422668        1.86937723944913       -1.31568331987657
H            7.06418387084118        2.13651906326892        1.25730329504248
H            7.11787218933343        0.38695630678730        1.44875746361487
H            5.78358361241193        1.30807097931423        2.14283980782829
H            6.42309729876765        3.63604719060570       -0.26191253197959
H            5.08354729152642        5.65916239056812       -0.50066219576243
H            2.60858730618735        5.49791644206923       -0.52609566208630
H            1.53062113562434        3.31018777741113       -0.33468709287827
H            1.03617013441004        1.14629569664453       -2.16377687251080
H           -1.40255795870445        1.02507230227866       -2.05210345660537
H           -1.88337320336692        2.99654101788215        1.21906490844238
H           -2.96128268430564        4.65066525240638        2.66723112041569
H           -5.29932606169671        4.33656886514050        3.39462583255348
H           -6.55777988730302        2.35065979376454        2.63499521281552
H           -5.47571006970470        0.68821325891300        1.18474418031477
H           -3.86305742433719        2.95784066679213       -0.99645010959162
H           -4.82176470547667        3.24751893867131       -3.22873906045348
H           -5.11324269278617        1.30218482343518       -4.72610817682592
H           -4.42184543987135       -0.95241051909509       -3.93402510011224
H           -3.54640634819910       -3.92209481912224       -0.35076777347907
H           -3.55241771493108       -4.35101909827966        2.10116815827495
H           -3.40209695205132       -2.43576251846321        3.65677487695381
H           -3.20740872172533       -0.15789401575271        2.80083021629082
H           -1.17133636052290        0.57515355626006        2.19519198088960
H            1.27041221486252        0.71696717155433        2.07245928178068
H            6.58996962466944       -1.41376877693210        0.29029450221253
H            5.42035935726127       -3.55998523308191        0.41290657635128
H           -0.87829738125048       -3.11658626299628       -0.13689791954341
H           -0.84779081608865       -5.58818701977097        0.06461124709694
H            1.26168148454595       -6.80014811751387        0.34302487034695
H            3.41693322748922       -5.59090261157540        0.42778795024890
