83
 energy: -128.509941281048 gnorm: 0.000118360116 xtb: 6.7.1 (edcfbbe)
C            6.53399252440483        1.01381993272065       -1.31549688366015
C            5.64431178916338        1.06085400791785       -0.05877483832035
C            6.51507451391675        1.16753302607851        1.20768538089584
C            4.76141111884313        2.28993356956302       -0.13825385375847
C            5.34047991709866        3.54885153623259       -0.22055756132468
C            4.58009279625030        4.70193749079507       -0.28682800115405
C            3.19791839439686        4.61012374303263       -0.26727552301945
C            2.59502100628792        3.37484869856944       -0.18498689997109
C            3.36296067456028        2.20542650379358       -0.12369768742590
N            2.72907954549776        0.98220230301001       -0.04481476919662
C            1.30473574362401        0.93863174279316        0.00575256524240
C            0.56211952643140        0.92843512781601       -1.16367721930883
C           -0.81849627717279        0.86682309319974       -1.10473080658280
C           -1.47921180895128        0.81432330288033        0.11656820465443
C           -2.99944221995761        0.68154772385051        0.20529820954912
C           -3.62554988738943        1.72511916123445        1.11312361903445
C           -2.97221502009805        2.89386465467490        1.48188109641865
C           -3.60837634325510        3.83615777349411        2.27267769938353
C           -4.90835733391609        3.62895196606785        2.69743800262417
C           -5.57571382418831        2.47657984657488        2.31557598269158
C           -4.94134218475924        1.53683843490659        1.52602723937907
C           -3.61629217659304        0.82317488414729       -1.17332330590532
C           -3.94013967944445        2.07613332047460       -1.66675075080737
C           -4.41280341755697        2.24261183661777       -2.95959478248345
C           -4.55200210101249        1.13796631755566       -3.79016250090005
C           -4.23493487515439       -0.11630493979181       -3.32781474746078
C           -3.77756858638399       -0.29541743687099       -2.00874255860260
C           -3.51336597412463       -1.64049741126134       -1.55142631658259
O           -3.50706224855794       -2.62602546496930       -2.34433316246340
C           -3.36859422592268       -1.80943801709054       -0.12571960519683
C           -3.42681343553952       -3.11674376780175        0.39852770339710
C           -3.38974252548521       -3.32601941972166        1.75522842930821
C           -3.30344978492686       -2.24467383076476        2.62320928503952
C           -3.22195943446395       -0.95796634932039        2.11340342574045
C           -3.23332635371709       -0.71855407458534        0.74924179777534
C           -0.71742809647974        0.82626624823395        1.28215569105085
C            0.65958502391938        0.89673324173476        1.23418141203466
C            3.43468477998863       -0.19896565286029        0.01128104913961
C            4.83749513763252       -0.22127430743208        0.01281117401547
C            5.51182281716777       -1.44021734235622        0.07977183185532
C            4.86274280714922       -2.65573692773233        0.13993448580930
C            3.47415879396105       -2.65344791594535        0.12827694756601
C            2.77584607802395       -1.43668059468779        0.06411556610893
O            1.42883319096014       -1.63916047578651        0.05714799875503
C            1.23811640991835       -2.98395336700067        0.11564698485905
C            0.01980693439024       -3.63861773147121        0.12885604709904
C            0.05136024317375       -5.01913360150736        0.19342011688686
C            1.25515467798519       -5.72012023462838        0.24236009585420
C            2.46977345650020       -5.06330314447943        0.22829323887086
C            2.46311291022352       -3.67566288036171        0.16422133482238
H            7.19958587623092        0.15622801669759       -1.28881207390449
H            5.91277313191169        0.93901188761656       -2.20573498924904
H            7.14010474534744        1.91154547512102       -1.39419324384466
H            7.11807529150865        2.07066568643102        1.18678064437363
H            7.18181659280588        0.31457849112773        1.29330617898259
H            5.88086183795573        1.19805026226643        2.09146918243212
H            6.41569946003942        3.64003281265329       -0.23262356367729
H            5.06339959855474        5.66445775736349       -0.35129798288344
H            2.59007836631572        5.50060101100302       -0.31574975298434
H            1.51899214185270        3.30190559781638       -0.16855013487577
H            1.06655148731561        0.96126069227742       -2.11818747127716
H           -1.37847061839907        0.85951146904012       -2.02648420165803
H           -1.96179183522411        3.07845061717970        1.14631450789026
H           -3.08424441772106        4.73862054615469        2.55298046581410
H           -5.40200801392201        4.36421548320591        3.31559125003954
H           -6.59529457208057        2.31153926439157        2.63152282703955
H           -5.46653029517339        0.64222427048047        1.22382679020613
H           -3.80808877842970        2.94314438486781       -1.03559128826337
H           -4.65982816538391        3.23088383559381       -3.31684751153343
H           -4.91279114403536        1.26057066443890       -4.80123038244152
H           -4.33894581340921       -0.99006383454670       -3.95244776996392
H           -3.51939108818945       -3.93683364276510       -0.29728980827787
H           -3.44032980572488       -4.33242624274542        2.14503711167742
H           -3.29445567427423       -2.39976176393479        3.69143073522296
H           -3.15914691037517       -0.12506129945356        2.79937276296854
H           -1.20453986708170        0.78156071146292        2.24326983869726
H            1.24131349585931        0.90757112197698        2.14441875621851
H            6.59036397871244       -1.43891639739054        0.08506044064322
H            5.41376373422476       -3.58075255177813        0.19118627315154
H           -0.90622576158610       -3.08947067181660        0.08933786855087
H           -0.87959741659996       -5.56441633653720        0.20355224447495
H            1.23433756906407       -6.79856331989028        0.29070178392545
H            3.40092967446971       -5.60761053976036        0.26484221161884
