78
 energy: -123.443602425573 gnorm: 0.000056563290 xtb: 6.7.1 (edcfbbe)
C           -3.54744737967442       -3.56034337700791       -1.15006149279694
C           -3.60971987192919       -2.18591561787737       -0.56155446373917
C           -4.80038055687156       -1.48907466360918       -0.61789797562205
C           -4.91533295274486       -0.19382135795517       -0.11803727228809
N           -6.17221470826935        0.48816999073347       -0.17942138275352
C           -6.39054208397947        1.33359503518334       -1.25348834656172
C           -5.40001823266377        1.47257491708860       -2.23482820025436
C           -5.56450873384591        2.31427871741621       -3.31582002405802
C           -6.73014865641073        3.05031192162103       -3.46259068122542
C           -7.72705053222897        2.92110952219533       -2.51548188343964
C           -7.56712247757328        2.07481935486898       -1.42645035403049
S           -8.92768334419735        1.99436928873243       -0.30537279281023
C           -8.34335514688834        0.84933945668522        0.90404795941905
C           -9.21620244891654        0.57121305179029        1.94741671106968
C           -8.85700314031419       -0.30179781225748        2.95552333485876
C           -7.60445771024390       -0.89477246308119        2.91610201920780
C           -6.73322577077229       -0.62211333818746        1.88140451578644
C           -7.07719250174653        0.25221269011716        0.84173081998334
C           -3.80399465505056        0.42483171034392        0.44647666631486
C           -2.61051736701906       -0.25482696268289        0.50746854095928
C           -2.47166025849616       -1.56789710508888        0.01680970656723
C           -1.19397553829204       -2.23363542131160        0.12659175511132
C            0.01162622318210       -1.53369221843543        0.13821441540925
C            1.21248431165110       -2.22282773381007        0.28976095008375
C            2.49275528722016       -1.55086916146505        0.27590141977675
C            2.64547921617843       -0.37169672567288       -0.47794932986712
C            3.84179439338660        0.30373354251539       -0.54031005185489
C            4.94001702340910       -0.18462399834602        0.16016069871555
N            6.19601468395353        0.49900709776099        0.09862097506890
C            7.11881253287806        0.06016625402844       -0.83578780761754
C            6.81305192162896       -1.04220626791343       -1.64484619835297
C            7.70400623163227       -1.51966192056961       -2.58425497016215
C            8.93923428823677       -0.91356505101138       -2.75403778364555
C            9.26084353380676        0.18024422071592       -1.97443427007182
C            8.36698110609960        0.66668979921982       -1.02997667970408
S            8.89495265516914        2.08976883732833       -0.12894625818341
C            7.56496674349839        2.32000636021178        1.00843774350790
C            7.72329120070247        3.34601909394843        1.93036574819660
C            6.73883152490654        3.61895521375821        2.85996814769399
C            5.58704601694973        2.84744777543833        2.86522148038710
C            5.42606078306899        1.82436618833682        1.95333660289331
C            6.40634575837477        1.53207202911014        0.99579801901596
C            4.81066170148565       -1.34586759976460        0.91913284098560
C            3.61683737818276       -2.03584190451761        0.99082468123136
C            3.53403326967483       -3.25326430680185        1.85695826499777
N            1.17305581116709       -3.58765971974055        0.44615020230120
C            0.00654173930551       -4.17669282556821        0.39753377223642
N           -1.15708043686795       -3.60316867938961        0.23706373937303
H           -2.75471596887886       -3.61965762915427       -1.89501760826993
H           -4.49397316768295       -3.82071984634692       -1.61860123570192
H           -3.31470603777667       -4.29120837524447       -0.37806831944976
H           -5.67041168710741       -1.95228737312634       -1.06263783044598
H           -4.48871381576920        0.90484405850121       -2.13775212307473
H           -4.77489863924917        2.39284873493686       -4.04735355404012
H           -6.86383587602734        3.71232941164096       -4.30326851409309
H           -8.64970160957978        3.47447984846357       -2.60480035136261
H          -10.18157084030343        1.05447700061303        1.95232206094032
H           -9.54301021430415       -0.51230863334589        3.76045307932400
H           -7.29935901260269       -1.57587005905562        3.69562061204238
H           -5.76247865441946       -1.09074664781365        1.86843424792720
H           -3.88850679297401        1.42630296894441        0.84307960775624
H           -1.76619864489291        0.22271659069634        0.98141686051795
H            0.01521083142884       -0.46001048876524        0.03147822669177
H            1.81066410717995       -0.00349813888346       -1.05522575458290
H            3.93852062736081        1.19961466453368       -1.13642742079629
H            5.85649322212232       -1.52534374028964       -1.52781100139072
H            7.42802120149504       -2.37189707639793       -3.18609397667925
H            9.64068621528804       -1.28357291999099       -3.48472429259923
H           10.21150846693809        0.67924827492315       -2.08700275461679
H            8.63328618311118        3.92611789536389        1.90272176329176
H            6.87076510344972        4.41994730179966        3.56985889912094
H            4.80584169512353        3.03965112236956        3.58463744583610
H            4.52610352685442        1.23113226718503        1.97390325359058
H            5.67083162433871       -1.70682020819241        1.46607466467197
H            3.32112253612935       -4.13272772031156        1.25229396974020
H            2.72022578048558       -3.15472799416006        2.57456414222734
H            4.46600685505107       -3.40487488899216        2.39695658990866
H            0.00414225353540       -5.25701397462431        0.50205284398678
