78
 energy: -123.514354548427 gnorm: 0.000136748509 xtb: 6.7.1 (edcfbbe)
C           -3.39465366658670       -3.35353693995362       -1.60352552223115
C           -3.54879857346484       -2.11329794850719       -0.78294416975582
C           -4.75445364690042       -1.42436736073647       -0.80550750368878
C           -4.94047658125380       -0.26571925825697       -0.06674530122659
N           -6.19988943805266        0.40465709784184       -0.12139541420215
C           -6.36287920939412        1.38158599988240       -1.09920829817382
C           -5.28453040911466        1.73092710327901       -1.91577830586701
C           -5.40349910706773        2.69085998915408       -2.90502472984957
C           -6.60567832510606        3.34259700119695       -3.10500750711177
C           -7.68561172225640        3.01500658984187       -2.30361849823563
C           -7.57243371286552        2.04639204175397       -1.31986315674151
S           -9.04742635844306        1.68588367716157       -0.40251416282754
C           -8.41789453236393        0.65139941266064        0.89404253351673
C           -9.29853411742406        0.35837425212558        1.92219343803452
C           -8.92912200047324       -0.48847333533818        2.95281666483830
C           -7.66307042885045       -1.04266272742039        2.94069566160657
C           -6.77639226032502       -0.74041502290228        1.92249150992875
C           -7.12530444157276        0.11961476169522        0.87839352675076
C           -3.90444123767599        0.23272437917342        0.71352515293878
C           -2.69772695914591       -0.43715315038473        0.73889422377474
C           -2.50492074882754       -1.60621256313261        0.00339210854455
C           -1.19690400318051       -2.27651728495139        0.08901541757071
C           -0.00944817868039       -1.54522676370674        0.09208691648357
C            1.18782003461140       -2.25149728751476        0.20564554464190
C            2.48659681002142       -1.55874208276033        0.18018212570944
C            2.66157947676454       -0.51720701850953       -0.72925946842240
C            3.86092689888301        0.16242582133314       -0.81690956494138
C            4.90445938947271       -0.19231982116561        0.02573867099839
N            6.14320119444054        0.51178464956008       -0.05770321775428
C            7.17584320005315       -0.07415983914521       -0.78569841299095
C            7.02033411486895       -1.35856570597547       -1.31187823601616
C            8.02965613381175       -1.97336746722357       -2.03135646766090
C            9.23293025685181       -1.32673753000291       -2.24245080606925
C            9.40321582474287       -0.04848277272195       -1.73962971003160
C            8.38813814452727        0.57591914350243       -1.03409807914249
S            8.69239597060680        2.24963423986013       -0.52966651848158
C            7.40042649400152        2.48823516943256        0.66205634899986
C            7.51908405258100        3.59160241991539        1.49072565968260
C            6.52937331717499        3.89719987597997        2.40890901821011
C            5.41931710912354        3.07791365424203        2.49341529117867
C            5.30758548232741        1.96424794586742        1.68008160340156
C            6.29252941682395        1.64021113958489        0.74416489412480
C            4.73460419054005       -1.22213662137322        0.94205012106042
C            3.54003309812145       -1.92279413436942        1.03190408162980
C            3.40642873947818       -3.02323614970750        2.03550065924146
N            1.18169698092411       -3.58199342070933        0.32167785056541
C            0.00815429658561       -4.17879098689634        0.29882165967759
N           -1.17304882850024       -3.60858785524120        0.18244701975429
H           -2.45572620872348       -3.34318415788644       -2.15341353626133
H           -4.21757882610531       -3.45097339969235       -2.30674338502673
H           -3.37944790509063       -4.22640825603291       -0.95355084319109
H           -5.57067987680791       -1.79424751204408       -1.40891406240786
H           -4.33652665448332        1.23618692784862       -1.77626539585881
H           -4.54598175214799        2.92552632754464       -3.51748408610700
H           -6.70991222676052        4.09295266160262       -3.87295067402872
H           -8.64016689470624        3.50157919893452       -2.43893125453743
H          -10.28524869305515        0.79653275774942        1.89468073325091
H           -9.62604214364300       -0.71265237815419        3.74503254409096
H           -7.35342977777466       -1.71558472919085        3.72598616746501
H           -5.79421292093580       -1.18567702055666        1.93365087733432
H           -4.04924233861504        1.13321714051807        1.29125960708086
H           -1.89788955573923       -0.06132983423320        1.35966854011177
H           -0.01668773986084       -0.47073476457648        0.00821495866043
H            1.85541752538114       -0.25361937747207       -1.39769428850085
H            3.99234549754301        0.96204549300498       -1.52991121695502
H            6.09003560253887       -1.88269887273731       -1.16142041429468
H            7.86628256520348       -2.96532401326084       -2.42475364394239
H           10.02780614362902       -1.80022408121801       -2.79709543116602
H           10.32451943692808        0.49093692790009       -1.90236444545073
H            8.39436081811457        4.21663788006799        1.39356431274429
H            6.62781901637150        4.76553950194607        3.04136581584819
H            4.63109966503261        3.29703773188368        3.19784183108615
H            4.43581417410433        1.33532128616531        1.76705712585880
H            5.55660448898475       -1.48119900863904        1.59414020782837
H            3.40377568818847       -3.98609726092648        1.52802720521662
H            2.46847510906120       -2.94256601067399        2.58110215287165
H            4.23225610319465       -2.99881970369705        2.74172052754129
H            0.01528450917425       -5.25927758269711        0.38362812246609
