78
 energy: -123.513626703085 gnorm: 0.000039619741 xtb: 6.7.1 (edcfbbe)
C           -3.33414802319856       -1.64356603895573       -3.02217528257747
C           -3.50635183397614       -1.15343515035507       -1.61997988172567
C           -4.71479931381279       -0.59036293362751       -1.23504294682892
C           -4.91567700220962       -0.11584649274959        0.05445218245465
N           -6.17084879685020        0.45673022145040        0.42253447526774
C           -6.33110473253986        1.82481340307168        0.22206167818293
C           -5.29902957524200        2.56520892013473       -0.35976101900386
C           -5.41388313471230        3.92708270468171       -0.57502447276771
C           -6.57249223681085        4.59450914024730       -0.22547610482402
C           -7.60841159432800        3.87942764317612        0.35007698441165
C           -7.49107185417550        2.51830924444507        0.57881932307192
S           -8.87149677878273        1.73747594967498        1.37351974205396
C           -8.44868839848458        0.02116840919966        1.22011164408032
C           -9.43604610457909       -0.88363184856352        1.57377217052293
C           -9.19340544197395       -2.24597593371983        1.54543664622955
C           -7.94422927739326       -2.69388996844473        1.15938827513476
C           -6.96044819492726       -1.79290651146472        0.79234049485847
C           -7.18717192053235       -0.41449196860051        0.80475003602914
C           -3.89231100214191       -0.19370973970402        0.98831946222782
C           -2.67972048226194       -0.73999657688175        0.61512122625396
C           -2.47188758604181       -1.22342274805793       -0.67544490769249
C           -1.15603270880878       -1.79718378038611       -1.00200644389295
C            0.02023605016002       -1.19413428182211       -0.55468915847695
C            1.22629758820505       -1.80177417859260       -0.89468651311627
C            2.53619203356427       -1.23733516125879       -0.52718776315625
C            3.49537087766065       -1.15676400434777       -1.53686147452917
C            4.73806922510288       -0.60932400264490       -1.29757059852929
C            5.04115149386261       -0.14837658658581       -0.02079105516422
N            6.31654590082004        0.42682971579775        0.26467365414999
C            7.36156017931617       -0.44247760559395        0.56666542417918
C            7.15457106552499       -1.82312849221630        0.51979125611069
C            8.16903390502395       -2.71840649080126        0.80917104708593
C            9.42955607799377       -2.26233104175322        1.14600765655359
C            9.65375634689368       -0.89778337595171        1.20575797755579
C            8.63547750332987        0.00062325593562        0.93340280815978
S            9.02929594768139        1.71900704398865        1.13316771211668
C            7.63756597423374        2.49009678319441        0.34872523389263
C            7.75045807470853        3.84637746315466        0.09158568967571
C            6.69749837305959        4.55275491931056       -0.46350494738543
C            5.52662257702962        3.88189613985952       -0.76226973587310
C            5.41698399462182        2.52386662708065       -0.52135478433635
C            6.46757454087887        1.79182966669554        0.03696687155288
C            4.10502926639038       -0.25716704211371        0.99452468847169
C            2.84544117304558       -0.79976264154190        0.76500654825702
C            1.89630287561602       -0.92526242602849        1.91846145405860
N            1.24467112305942       -2.91462383961931       -1.63531395523269
C            0.07956876249164       -3.40631839786232       -2.00216961810762
N           -1.11221360546856       -2.91711507573819       -1.72736594880673
H           -3.27294770613998       -2.73004261821923       -3.02944016901384
H           -2.41056205853593       -1.26396457940430       -3.45522631520855
H           -4.17085169230650       -1.33175885844617       -3.64174554294512
H           -5.52322606867760       -0.51913433050771       -1.94860739613416
H           -4.38771578105911        2.06441527576154       -0.64557806578865
H           -4.58946767361915        4.46126539418140       -1.02275455658009
H           -6.67430789057155        5.65545403402776       -0.39178511851165
H           -8.52474295526126        4.37207483357105        0.63987422731805
H          -10.39729773275531       -0.50081002545744        1.88324671049056
H           -9.96988175105419       -2.93940285075868        1.82805835922253
H           -7.72434531249627       -3.75060941420109        1.13889253911633
H           -5.99363677584532       -2.16617731198424        0.49428641358733
H           -4.04922854369268        0.17164219001759        1.99172433964228
H           -1.88827920859087       -0.81665260518426        1.34531772551710
H           -0.00332826082196       -0.26607331970572       -0.00895206240151
H            3.24298780757335       -1.52705320634791       -2.51874379885062
H            5.47319437396312       -0.53926672542604       -2.08508695361611
H            6.17995585620451       -2.20270660788575        0.25685081701340
H            7.96422331620815       -3.77749105909590        0.76608163213502
H           10.22910766583183       -2.95183237756127        1.36728355073763
H           10.62341514202463       -0.50921181810843        1.47967089017165
H            8.67517722268115        4.34290847506885        0.34578799997141
H            6.79497242859850        5.61049296702768       -0.65148236182593
H            4.68805220420707        4.41050120678750       -1.18989634622474
H            4.49548289815503        2.02002476993530       -0.76662491569586
H            4.36632421815585        0.08429345119346        1.98572112507243
H            1.18048081057501       -1.72762459916298        1.75901144398477
H            1.34999281629278        0.00709982731798        2.06253001018086
H            2.44944561754180       -1.12624482459145        2.83333187712592
H            0.10365170242071       -4.31161220798916       -2.59768480903409
