103
 energy: -157.704514191920 gnorm: 0.000181637008 xtb: 6.7.1 (edcfbbe)
C            6.14857416207760       -1.74250721525796        3.09187817495993
C            5.63270132432903       -2.17341886157591        1.70564450941053
C            6.37883266527240       -3.43418285535045        1.22867518762414
C            4.15818448524693       -2.49992408106449        1.81235961069292
C            3.73441019649706       -3.50157112376882        2.67512543625077
C            2.40043145857986       -3.84470893744448        2.79828914321989
C            1.45129363810325       -3.19122931033060        2.02727914015433
C            1.84392151829800       -2.20118986704987        1.15566032738372
C            3.19120139281025       -1.82734155358471        1.04947688474676
N            3.54669867681136       -0.80601282162776        0.19630742826810
C            2.52243374956982       -0.13347029441962       -0.53240533123669
C            1.79211579164107        0.88437589961213        0.11639070472646
C            0.75301876909228        1.50955007223430       -0.60068201413455
N           -0.08875046308207        2.44022962743874        0.07370101495736
C           -1.04842755787135        1.94706908639326        0.93379941201275
C           -1.14926624484581        0.56413881879000        1.14463511095312
C           -2.05755280631603        0.04750800492498        2.04049384911973
C           -2.91396271061583        0.89813011123997        2.72160690260511
C           -2.84878967386252        2.25929766830032        2.48597723201862
C           -1.92888789913703        2.81028565830313        1.60379290173863
C           -1.91833989981951        4.30641920187763        1.36899209784077
C           -1.68450704640929        5.02171341552480        2.71300783679050
C           -3.28238634323351        4.71376117657272        0.77970527354805
C           -0.82638969924761        4.72144365060271        0.40522143545563
C           -0.65849101662394        6.06239645382622        0.08888552894590
C            0.33868676327651        6.49264167938471       -0.76703073738063
C            1.20910163715756        5.56711532230701       -1.32306231979655
C            1.06287622415947        4.22996235847680       -1.03337481154102
C            0.04017863797151        3.78738411837186       -0.18297431319818
C            0.49782634405597        1.19215656783917       -1.90977867661365
C            1.24459154502427        0.17713250933080       -2.54442085100988
S            0.50546586252436       -0.61285323676503       -3.94686547360879
O            1.30971146374981       -1.75153657605752       -4.31622076918734
O            0.18820024309493        0.35336692090263       -4.96912808686434
C           -0.99121266949512       -1.10740935318494       -3.11525461996762
C           -2.08263922258540       -0.23000829488670       -3.16719343334625
C           -3.10503483143189       -0.31925370460816       -2.23971999840197
C           -3.00766698906988       -1.29247044641703       -1.25743492396777
C           -1.93259820737581       -2.23245875330761       -1.24760677152075
C           -0.90443799867306       -2.11012959699010       -2.16588680539177
C           -2.18215627705028       -3.12295633365184       -0.15370657158947
C           -1.49621926997154       -4.21999298692911        0.35440839156320
C           -1.99327817846409       -4.84501840173902        1.48706899691289
C           -3.14185942057222       -4.38118922966606        2.11620344122524
C           -3.84908875952621       -3.29311914769269        1.61903085468112
C           -3.37665368920910       -2.68219627162042        0.46808556230420
N           -3.86532968028028       -1.57899594218546       -0.21041005107971
C           -4.97802137952875       -0.82125005817442        0.15465844667602
C           -6.18351465632359       -1.44530331466282        0.48234276588814
C           -7.27458925078205       -0.68815292088272        0.85870255425321
C           -7.18650900641429        0.69517395796791        0.90902792444342
C           -5.99369799121544        1.31855863140371        0.57303504859120
C           -4.89512510756918        0.57261337638443        0.19859224850303
C            2.24031966182862       -0.50327274111034       -1.82301331273604
C            4.85621988760412       -0.41720549364787        0.02466565275251
C            5.15243328696907        0.63440525386370       -0.85424155478925
C            6.45184960043731        1.03949579704965       -1.05525359008691
C            7.48463061157975        0.40553386930850       -0.38066837592934
C            7.19588645628227       -0.62347211916569        0.49675297427817
C            5.89540156040680       -1.05249328080267        0.72237158753253
H            5.99517125320019       -2.53013595063440        3.82389868556391
H            7.20973706995389       -1.51374849406439        3.05553104446574
H            5.61629529766514       -0.85387729212429        3.42575014576082
H            6.22250963305865       -4.25954442480526        1.91733192794129
H            6.01407570938691       -3.73085091302212        0.24741061351609
H            7.44644670606328       -3.24784902673650        1.15650737164679
H            4.46090807125311       -4.03193440557206        3.27154222136799
H            2.10449225996223       -4.62294358338945        3.48475171518940
H            0.40774622153381       -3.45627356713932        2.09944425107718
H            1.10939473702404       -1.71183334239285        0.53736032867861
H            1.99912458340649        1.14920250302339        1.13928891474182
H           -0.50914553999961       -0.10290025995806        0.59255996563826
H           -2.10176373753806       -1.01853928276028        2.20173341000115
H           -3.63610513735667        0.50406506237678        3.41957617263771
H           -3.53863654177903        2.90503555756591        3.00706558904257
H           -2.45981824375011        4.76555297116355        3.42914489908640
H           -0.72246778426514        4.72601757881056        3.12692367535425
H           -1.68540948973684        6.10000506436421        2.58325383971615
H           -3.32433354136709        5.78531678853241        0.60629429085317
H           -4.08882103875793        4.44484147504350        1.45638339437805
H           -3.44288131741126        4.20572765371632       -0.16940796430381
H           -1.32103432589236        6.79759911992524        0.51954622941293
H            0.43968298374672        7.54276353295426       -0.99360607842730
H            1.99987067059143        5.88937762652474       -1.98271881274950
H            1.73661676651160        3.50662264804017       -1.46388935349048
H           -0.29880348023337        1.67252574990583       -2.45377334968503
H           -2.10034689923081        0.50588898604057       -3.95437008426441
H           -3.95306072473472        0.34681236576399       -2.28833933679227
H           -0.04604171630691       -2.76389858515896       -2.16026676514541
H           -0.59569600428133       -4.57037285024237       -0.12605706091230
H           -1.47552032878497       -5.70099515406077        1.89497797388926
H           -3.49514692066875       -4.87371283547659        3.00978073307339
H           -4.72809309830957       -2.93096395424300        2.12939499481417
H           -6.26244314210165       -2.51944941260520        0.41025545083809
H           -8.20481784133228       -1.17852073463327        1.10511763282869
H           -8.04275557026570        1.28273524411467        1.20296497968874
H           -5.91823011810560        2.39534610511284        0.60923083138086
H           -3.95963227107252        1.05583856848656       -0.03654644461832
H            2.76424698295175       -1.31151700185661       -2.30707777909286
H            4.34693034163153        1.12206400156354       -1.37926681099924
H            6.66179210988227        1.84796899508898       -1.73841421663768
H            8.50757925761726        0.71238357961401       -0.53479853492429
H            8.01159141277851       -1.10116593759734        1.01757094640613
