103
 energy: -157.704513599157 gnorm: 0.000130247126 xtb: 6.7.1 (edcfbbe)
C            6.33680306362992       -1.03183067105364        3.02842304412864
C            5.91063207037074       -1.33506903127295        1.57933248933601
C            6.88028330425969       -2.34763433493226        0.94041426703572
C            4.52370284058206       -1.94212016392076        1.59474141311868
C            4.29499665869500       -3.12168150007192        2.29009335893005
C            3.04849950360545       -3.71943033619497        2.32615509562155
C            1.99295130707980       -3.14425625834598        1.63518350763631
C            2.19346283883690       -1.98116819869941        0.92733827984637
C            3.44805088951918       -1.35516477858200        0.91064716173904
N            3.60717913014338       -0.17262572161231        0.22263494958365
C            2.47911116601975        0.39217539656239       -0.44163840986395
C            1.57444944963011        1.17124203720629        0.30979993018769
C            0.44099430405408        1.68500524891942       -0.35051388997587
N           -0.55909479583019        2.35385191688252        0.41245739940349
C           -1.41891129878440        1.58819367738139        1.17300762089005
C           -1.26681136770942        0.19427610444332        1.20414216418401
C           -2.07255593550583       -0.58963446346613        1.99832974064688
C           -3.07515579630608       -0.00312224220830        2.75446373424593
C           -3.25763218126900        1.36646328887664        2.69543169180466
C           -2.44713164122961        2.18415538243120        1.91919782586747
C           -2.70794050890705        3.67542696583515        1.87630586411360
C           -2.61806510162699        4.23989131191590        3.30669306026180
C           -4.11910481551495        3.90403682427323        1.30174193356039
C           -1.70296486123956        4.40214221976162        1.00716636321395
C           -1.78015327707849        5.78097385239089        0.86843567999957
C           -0.87172027515319        6.49123152870609        0.10529866416435
C            0.15709561203318        5.81777222436556       -0.53613062569662
C            0.25494096183241        4.44997341382050       -0.42286245000632
C           -0.67615731684041        3.72389992730121        0.33263830491406
C            0.25137611676583        1.49583411665900       -1.69508121152930
C            1.17152202549269        0.72027757761828       -2.43142190106399
S            0.59286796706077       -0.00359297674391       -3.94101450835456
O            1.58963668418528       -0.92654985314124       -4.42537206618049
O            0.11442607380126        1.01317001219755       -4.84470373543635
C           -0.79647725286817       -0.85553966985224       -3.22010473898634
C           -2.02602692590847       -0.18382569858612       -3.19299531170987
C           -3.02249893014415       -0.57056553016007       -2.31490418110582
C           -2.76060349097283       -1.63118631513919       -1.46174478160608
C           -1.53575819587393       -2.36154026091020       -1.53923128558393
C           -0.53911414571494       -1.94198919537655       -2.40309580101793
C           -1.63144034446108       -3.41754797379433       -0.57620158563223
C           -0.76610103099441       -4.43551739305870       -0.19247256268579
C           -1.15276867516822       -5.28076982080400        0.83547392873021
C           -2.36968703288058       -5.11112511692159        1.48392719584099
C           -3.25483721032238       -4.10759692905689        1.10874032562053
C           -2.88965973841338       -3.27786575733856        0.06032142554448
N           -3.56133893905544       -2.19794853029028       -0.48632000390863
C           -4.79451957443850       -1.70221505731530       -0.06323085832655
C           -5.87212190299477       -2.56598233925397        0.14362635311559
C           -7.08430938327338       -2.06824197547087        0.57745305958496
C           -7.24516930005366       -0.70958688362290        0.80567698533230
C           -6.17974508262831        0.15231798104208        0.59042345541609
C           -4.96223423205961       -0.33338060179676        0.16000565628476
C            2.27227560561575        0.14409004337252       -1.77492893713689
C            4.81922774995829        0.47614435136934        0.15099145701704
C            4.91273397897969        1.68283238616609       -0.55697884371700
C            6.11135508157173        2.35131936313694       -0.65397708152488
C            7.24322549886229        1.83063610549806       -0.04453774681519
C            7.15319065489493        0.64623482967858        0.66340881344669
C            5.95782590853377       -0.04896566228272        0.78184616208364
H            6.33565814239284       -1.93640523849707        3.62962075526014
H            7.33557239315384       -0.60602189407421        3.05679742597047
H            5.64634732132938       -0.31984892703011        3.47652356728121
H            6.88229206064366       -3.28261203536800        1.49336588475049
H            6.57729787010455       -2.55425397116203       -0.08401061743977
H            7.89369734315423       -1.95699850097736        0.92683913557777
H            5.10823234095493       -3.59156415536585        2.82174342225809
H            2.90360492053587       -4.63218239553293        2.88324437515013
H            1.01645764346403       -3.60345033898349        1.64239511101326
H            1.37929025354210       -1.54822856145804        0.36959030058673
H            1.72687883077948        1.33648711010314        1.36276455554359
H           -0.51084264807146       -0.26898058133030        0.59303041147832
H           -1.92251031186703       -1.65797336189985        2.02196975920673
H           -3.71861236448276       -0.60824986002428        3.37391707744134
H           -4.05774789266089        1.80400101668913        3.27230115668473
H           -1.62074024029748        4.07208506288117        3.70852643809625
H           -2.81613844444296        5.30771886771104        3.31485646174466
H           -3.33768937164957        3.75630774545748        3.96080869613038
H           -4.86779095736600        3.40841894410961        1.91360572705368
H           -4.17738202142753        3.50370955431154        0.29129320394083
H           -4.35460235401014        4.96386021110912        1.26463368895941
H           -2.56897043292119        6.32258474287249        1.36781598095907
H           -0.96227014278251        7.56279679584787        0.01673507976820
H            0.88077163051937        6.36017134844942       -1.12470495577192
H            1.05230880186036        3.92171122220242       -0.92053440272081
H           -0.61779574623335        1.89040256483862       -2.19522948784216
H           -2.16907575805597        0.63310139460381       -3.88122646491932
H           -3.97496014260697       -0.06278004504545       -2.30388385118861
H            0.42185498762078       -2.43002790556168       -2.45462655559987
H            0.18490229062278       -4.55813421204811       -0.68760936227680
H           -0.49489792004378       -6.07960398825466        1.14572999651875
H           -2.63662787298688       -5.77069919208243        2.29606305785050
H           -4.18784864031828       -3.97473906336420        1.63420493668436
H           -5.75726897946561       -3.61851746648494       -0.06656537154082
H           -7.91423335562701       -2.74247940254061        0.72954029589374
H           -8.19532281949630       -0.32526066308960        1.14373885358474
H           -6.29823933508918        1.21151310505045        0.76516772524581
H           -4.12589379268243        0.33326355758937        0.01838436011079
H            2.93557300565014       -0.48881166855910       -2.34194795559680
H            4.03125877389395        2.08150373402076       -1.03278048699604
H            6.16584809796486        3.27720244379680       -1.20552276414756
H            8.18908886018810        2.34465341665988       -0.11847816478022
H            8.04327765451971        0.25820213235261        1.13457619521083
