  92
       -154.72827303
 N         11.5456531326       -1.3727604113        1.7024543735
 C         10.4958446749       -1.3643643092        1.2421252385
 C          9.1949438313       -1.3480757559        0.6879112224
 C          8.1339024849       -0.8620658297        1.4205372424
 C          6.8434709398       -0.8449638894        0.8687478939
 N          5.8208628738       -0.3604072679        1.6195031690
 C          4.6523004274       -0.3704335924        1.0488931796
 C          4.4423134355       -0.8699589163       -0.3037551454
 N          5.4111241002       -1.3402760367       -1.0359531283
 C          6.6378176197       -1.3340731994       -0.4568874332
 C          7.7299567447       -1.8264998739       -1.1895330108
 C          8.9899586309       -1.8367668030       -0.6330484976
 C         10.0897481906       -2.3339126965       -1.3704705964
 N         10.9722934293       -2.7400707593       -1.9786314075
 C          3.0342451473       -0.7389245697       -0.6152305612
 C          2.2462338770       -1.0186454630       -1.7071924929
 C          0.8770851450       -0.7396287787       -1.6256858161
 C          0.2820383272       -0.1880447378       -0.5018680715
 N         -1.1045853064        0.0483805646       -0.4658656138
 C         -1.9857946789       -1.0343640638       -0.4963538990
 C         -1.5372236529       -2.3329642422       -0.7505010094
 C         -2.4169966713       -3.3916832834       -0.8165770159
 C         -3.7829907495       -3.2038628959       -0.6218076809
 C         -4.7353265466       -4.3147518729       -0.7340661241
 C         -5.9880762239       -4.1123745981       -1.3105161348
 C         -6.8849440959       -5.1569300658       -1.4315491186
 C         -6.5487259503       -6.4208312087       -0.9759238167
 C         -5.3083903322       -6.6328217368       -0.3977265896
 C         -4.4084379244       -5.5903770480       -0.2789458896
 C         -4.2169850357       -1.9217750932       -0.3056628504
 C         -3.3446566259       -0.8495574954       -0.2318804661
 C         -3.8835143266        0.4819553626        0.2228084460
 C         -5.2162968249        0.7860216501       -0.4308896090
 C         -5.4854919592        0.9610015650       -1.7702085441
 C         -6.7946378710        1.2209255952       -2.1538611317
 C         -7.8075829644        1.3028623998       -1.2103357628
 C         -7.5403441638        1.1284522354        0.1385698479
 C         -6.2366271854        0.8686694121        0.5270375493
 C         -5.6559570728        0.6351407291        1.8408247792
 C         -6.2323449159        0.6104098786        3.0996353162
 C         -5.4240509120        0.3488224571        4.1946115290
 C         -4.0678222996        0.1093069194        4.0366471356
 C         -3.4850695885        0.1314686042        2.7764245058
 C         -4.2825824888        0.4010398871        1.6869740070
 C         -2.9034985780        1.6056092175        0.0006740942
 C         -3.3695060127        2.9096550903        0.1501086729
 C         -2.5545400541        3.9956364281       -0.0628977010
 C         -1.2410648865        3.7798760030       -0.4671739941
 C         -0.7581044794        2.4684572954       -0.6060676499
 S          0.9058773047        2.4576372539       -1.1856853878
 C          0.9478149507        4.2022810732       -1.2334639248
 C          2.0278225669        4.9762012526       -1.6239826168
 C          1.8916132910        6.3504250388       -1.5968888296
 C          0.6982409674        6.9381384689       -1.1865160159
 C         -0.3743803723        6.1630542076       -0.7967149623
 C         -0.2608327888        4.7755129665       -0.8148246853
 C         -1.5720558785        1.3548378662       -0.3406337097
 C          1.0727941337        0.1203029929        0.6435266507
 C          0.6554698974        0.6832645071        1.8692540172
 C          1.5648441615        0.9162045987        2.8745337179
 C          2.9328466756        0.6194633043        2.7475303861
 C          3.3687033263        0.0671944807        1.5682710313
 C          2.4333526147       -0.1756007315        0.5347914330
 H          8.2745164185       -0.4887756909        2.4235828688
 H          7.5598260188       -2.1933071859       -2.1903851394
 H          2.6653056090       -1.4302802440       -2.6116756040
 H          0.2540489549       -0.9356292723       -2.4865334359
 H         -0.4861969989       -2.5268425907       -0.8926153037
 H         -2.0355590632       -4.3755622562       -1.0444289101
 H         -6.2498045913       -3.1328093600       -1.6839188925
 H         -7.8502365796       -4.9855191534       -1.8856078433
 H         -7.2500955929       -7.2364394079       -1.0704248090
 H         -5.0427420475       -7.6149657275       -0.0352520921
 H         -3.4515046320       -5.7592396932        0.1916821345
 H         -5.2599973173       -1.7547594387       -0.0812665510
 H         -4.6960757947        0.8958886775       -2.5049461617
 H         -7.0265874008        1.3598549767       -3.1994162985
 H         -8.8187351708        1.5048900820       -1.5318853951
 H         -8.3328441921        1.1921876395        0.8692099628
 H         -7.2894947256        0.7895548759        3.2269601347
 H         -5.8563878058        0.3269277008        5.1841165840
 H         -3.4577894926       -0.0991372941        4.9031846217
 H         -2.4299401196       -0.0692775430        2.6570637404
 H         -4.3989773557        3.0584672842        0.4382948687
 H         -2.9273531153        4.9996357225        0.0582336233
 H          2.9478143986        4.5097276267       -1.9408225483
 H          2.7195713944        6.9742077448       -1.8978010099
 H          0.6134925836        8.0143021081       -1.1746274859
 H         -1.2974933882        6.6237078085       -0.4795927079
 H         -0.3826931540        0.9440016592        2.0152883601
 H          1.2176357250        1.3492647825        3.8012803554
 H          3.6157005924        0.8244426079        3.5570780739
