44
 energy: -87.592536832356 gnorm: 0.000049192630 xtb: 6.7.1 (edcfbbe)
O           -2.45230020078846        0.18719494856324       -2.57718163690771
C           -2.62016078481406       -0.50675731646520       -1.56326329982987
O           -3.82286539783611       -1.11861400934654       -1.45270317589299
C           -4.10455921677866       -1.93775822586853       -0.39532449646438
C           -5.33867213696678       -2.55817858935801       -0.37176581098412
C           -5.67066837843217       -3.39049097388418        0.69407056913687
C           -4.77041163936305       -3.58956031641716        1.73523775362300
C           -3.54084302827978       -2.97316274338636        1.72206807384786
C           -3.17851603841273       -2.12388219353820        0.65210391988986
C           -1.93069036509384       -1.44062980120874        0.60880619632407
O           -1.11868459092218       -1.59696005629853        1.64918887693634
C           -1.62364873324544       -0.69171964062345       -0.55649113619049
C           -0.28682364444572       -0.05672473363359       -0.87148173440206
C            0.91732989652769       -0.87908507439828       -0.54790803106681
C            1.01712054023018       -2.23127651262247       -0.36973788307502
C            2.33809708526053       -2.67574665560810       -0.18339448914939
C            3.23099157036985       -1.64572842299301       -0.24344431749185
Br           5.09145785903652       -1.76644503306984       -0.05748495416755
S            2.47429507849714       -0.11462358745996       -0.52776922638763
C           -0.30292142933165        1.30093868330124       -0.19730083101811
C           -0.71526292605394        2.47217301712118       -0.88793861792679
O           -1.22419249861931        2.47536162653955       -2.11936749476026
C           -0.50579301311010        3.72696952753955       -0.25692594303412
C           -0.80240314632397        4.95709149259572       -0.88716149839798
C           -0.60650261361140        6.14425099839183       -0.22066397735102
C           -0.10719551737294        6.15133858047647        1.07710994875306
C            0.19192938172013        4.95282937686551        1.72137034719910
C           -0.00014654925982        3.75567656700905        1.06051920806839
O            0.29464288679377        2.60221534116087        1.73381338949575
C            0.16581642784955        1.38893170150554        1.14178133675780
O            0.50685907185000        0.41155018432862        1.82846044819414
H           -6.02485959166055       -2.38507511347263       -1.18510383736284
H           -6.63089447279720       -3.88082228200827        0.70358628839129
H           -5.03609239122424       -4.23514545110912        2.55783116664810
H           -2.82723372033355       -3.11686771432410        2.51702897020979
H           -0.38393353664435       -0.92370653363419        1.67999113501149
H           -0.27027612971602        0.11247401163304       -1.95915123526014
H            0.17271743517310       -2.89575362828452       -0.36790350396405
H            2.61739930827087       -3.69913818863506       -0.01333342922505
H           -1.60686066643946        1.60089084661241       -2.39524999965604
H           -1.18348526495409        4.92956019098229       -1.89496106011456
H           -0.83843906416154        7.07688721769893       -0.71114044723084
H            0.05518585872983        7.08408810817618        1.59296628243039
H            0.57332034877653        4.93681260124168        2.72966130790333
