44
 energy: -87.695054013142 gnorm: 0.000052288658 xtb: 6.7.1 (edcfbbe)
O           -0.61719024693070        1.08974145033885       -2.73175522707582
C           -1.38435654873080        0.96622470555570       -1.77628657978866
O           -2.47435578439322        1.75682793145689       -1.76231461801273
C           -3.35554191846136        1.72771283995719       -0.72890508878627
C           -4.47909550167152        2.54774189119989       -0.80599186069386
C           -5.38148660555383        2.55861819357836        0.23667278076882
C           -5.17530747911955        1.76138988217478        1.36078321891400
C           -4.06667600794639        0.95096067937454        1.44232782857602
C           -3.13869452553439        0.91995980194655        0.39363450363848
C           -1.96508298569015        0.06986801183808        0.41797037982083
O           -1.78956309459223       -0.63809537805022        1.52057090615120
C           -1.15440103074185        0.04879001458339       -0.69117976596904
C            0.04434109346166       -0.85887824727069       -0.89834396301678
C           -0.21636839600097       -2.30162185271459       -0.57744054967667
C           -1.39271263738940       -2.95761204626522       -0.38940046369908
C           -1.24161325647128       -4.35184168999175       -0.21206173473142
C            0.05815486402742       -4.73229712507756       -0.29034178706766
Br           0.73904591990603       -6.47809223434960       -0.11735698884838
S            1.12899500629897       -3.40294663807722       -0.58203250370884
C            1.29722460970920       -0.33844709269316       -0.21297196262575
C            2.18635862604635        0.48594996500529       -0.86246001877016
O            2.01246797611170        0.99967590943187       -2.07078733176661
C            3.42931478485774        0.81761922483987       -0.20086186542150
C            4.42938553861499        1.58746163434258       -0.80878397118992
C            5.60103448159478        1.85093517088294       -0.13823433426632
C            5.80010832793804        1.35673008151935        1.14958513986400
C            4.82779601262010        0.60074409235762        1.76956861193399
C            3.63945182760727        0.32974353177213        1.09480056448720
O            2.69339285721700       -0.39880946530356        1.74092318656315
C            1.53215142276766       -0.73753650886750        1.14550052068760
O            0.72692512483207       -1.37200325780384        1.82800787814318
H           -4.61591680916542        3.15818409370504       -1.68406947571395
H           -6.25297499463353        3.19197776143013        0.17911262882636
H           -5.88799785999445        1.78037257637110        2.17023661237841
H           -3.88691189129312        0.32500184732739        2.30181275867117
H           -0.89771902310052       -1.07325116559861        1.57441709120287
H            0.24447085334354       -0.83018291906495       -1.98105396675014
H           -2.35376758453373       -2.47735903565700       -0.37294355861951
H           -2.05526815663872       -5.03076385969740       -0.03454671384166
H            1.08740044816800        0.92185989556761       -2.41396157817855
H            4.25441165535022        1.95683631759230       -1.80657885859836
H            6.36974087394132        2.44203337299177       -0.61068371937015
H            6.72184616826838        1.56651768314266        1.66952262645728
H            4.95898186591056        0.21026095621058        2.76590124911096
