  58
  -101.858216411600       0.403988313609188      !
 F          5.2537610097        2.8484880176        1.3150995890
 B          5.0414268049        1.4874089854        1.3703204950
 F          5.2482959023        1.0435299878        2.6735960398
 O          5.9635326497        0.8119294570        0.4582323842
 C          5.6304955981       -0.2694132263       -0.2186093459
 C          6.7253567039       -0.9487128703       -0.8973563970
 C          6.5268232151       -1.9494016357       -1.8587253231
 C          7.6038493738       -2.5540502498       -2.4731899656
 C          8.9010224292       -2.1800252048       -2.1531005956
 C          9.1132216730       -1.1855885884       -1.2088104097
 C          8.0428493439       -0.5761585378       -0.5906705913
 C          4.3118243172       -0.6998693618       -0.3039134178
 C          3.2504956681        0.0390649780        0.2581995029
 C          1.9152069394       -0.3036940429        0.0982464762
 C          0.9069030190        0.5242475714        0.6163000651
 C         -0.4931156767        0.3057475940        0.4557369141
 C         -1.3955873027        1.3186836511        0.8567774237
 C         -2.7456496221        1.1820589713        0.6804362342
 C         -3.2639790722        0.0093437072        0.1165158267
 N         -4.6578489485       -0.1257156282       -0.0899125718
 C         -5.3909696812       -1.0609250149        0.6219120368
 C         -4.8109613062       -1.8723648008        1.5973645066
 C         -5.5749753781       -2.7939884471        2.2865378764
 C         -6.9314757513       -2.9218957310        2.0257005603
 C         -7.5308385008       -2.1090491235        1.0802293168
 C         -6.7731992895       -1.1798649158        0.3847113207
 O         -7.4225634494       -0.3885697282       -0.5153387707
 C         -6.6928363501        0.5364548482       -1.2008174873
 C         -7.3670043715        1.3300481484       -2.1158109382
 C         -6.6745847406        2.2676941460       -2.8610377431
 C         -5.3030543940        2.4007144597       -2.7011283548
 C         -4.6224327960        1.6155850055       -1.7909190552
 C         -5.3058469211        0.6816953938       -1.0113846087
 C         -2.3947718238       -1.0217959277       -0.2505535259
 C         -1.0397260685       -0.8751935517       -0.0929537018
 N          1.2888616101        1.6768708652        1.2703462704
 C          2.5371731487        1.9212861221        1.4444834440
 N          3.5595550318        1.1791552543        0.9876317437
 H          5.5293458920       -2.2455248603       -2.1422683080
 H          7.4340110841       -3.3217818556       -3.2141650156
 H          9.7386147765       -2.6574651484       -2.6390823575
 H         10.1201821224       -0.8878738148       -0.9560036895
 H          8.1952071323        0.1959756683        0.1465306468
 H          4.0649414688       -1.6064749493       -0.8274069801
 H          1.6747894068       -1.1756641866       -0.4879982589
 H         -0.9795205738        2.2061723182        1.3057842216
 H         -3.4253742818        1.9636782772        0.9880851838
 H         -3.7598613557       -1.7653896130        1.8141771924
 H         -5.1071603312       -3.4125495945        3.0362219079
 H         -7.5240241147       -3.6443296752        2.5638595890
 H         -8.5856896463       -2.1713919840        0.8663503775
 H         -8.4299632690        1.1897102624       -2.2286618140
 H         -7.2025141512        2.8838079298       -3.5711488825
 H         -4.7556153043        3.1181142036       -3.2920436277
 H         -3.5541931929        1.7142568180       -1.6806699412
 H         -2.8015731881       -1.9252356599       -0.6827102537
 H         -0.3903577071       -1.6811759435       -0.3955496861
 H          2.8147553057        2.8108474336        1.9929628247
  58
  -101.857525322900       0.194431410085912      !
 F          5.2662207149        2.6578406475        1.1932233218
 B          5.0409377752        1.3300718293        1.5417622940
 F          5.2331010970        1.1804877252        2.9005651675
 O          5.9700011350        0.4597943713        0.8218578160
 C          5.6370703803       -0.2122796179       -0.2614413699
 C          6.7287671434       -0.8981971548       -0.9407005208
 C          6.5930527900       -1.4816754417       -2.2077498099
 C          7.6607956139       -2.1217211816       -2.8025474434
 C          8.8854747647       -2.2014185308       -2.1557045998
 C          9.0367379739       -1.6229350814       -0.9034814379
 C          7.9762009668       -0.9784819275       -0.3040257049
 C          4.3165909113       -0.3183216012       -0.6792342736
 C          3.2544846213        0.2390397683        0.0621561486
 C          1.9204154047        0.0656884194       -0.2778287577
 C          0.9086886770        0.5995104199        0.5361613598
 C         -0.4898341732        0.4346031775        0.3153753211
 C         -1.3988355330        0.8940486283        1.2977198698
 C         -2.7493072891        0.7280466812        1.1542450538
 C         -3.2620496587        0.1113677091        0.0055575584
 N         -4.6569753988       -0.0727641372       -0.1432984413
 C         -5.3440414267       -0.9246431190        0.7072657337
 C         -4.7002489551       -1.6557174338        1.7062896785
 C         -5.4197592064       -2.4955164017        2.5340362049
 C         -6.7915974269       -2.6324378727        2.3802511476
 C         -7.4448587865       -1.9369663661        1.3786346755
 C         -6.7314643806       -1.0930528291        0.5416652413
 O         -7.4238525398       -0.4571249797       -0.4451956734
 C         -6.7359871581        0.3714743030       -1.2805237947
 C         -7.4553296142        1.0146414699       -2.2756529748
 C         -6.8163054824        1.8896408384       -3.1357951874
 C         -5.4586910896        2.1344322718       -2.9889700301
 C         -4.7327487291        1.4966720442       -2.0020031633
 C         -5.3523567192        0.5889277447       -1.1423356312
 C         -2.3851781195       -0.3236900193       -0.9924606135
 C         -1.0304044549       -0.1732480055       -0.8395017913
 N          1.2873388518        1.2830150072        1.6727673144
 C          2.5346207778        1.4571888524        1.9208527477
 N          3.5602325899        0.9828304754        1.1929085409
 H          5.6582478537       -1.4201157104       -2.7415863921
 H          7.5405661960       -2.5621097104       -3.7817620123
 H          9.7151225329       -2.7080219613       -2.6255490853
 H          9.9884257002       -1.6775687835       -0.3957873436
 H          8.0821572183       -0.5261458303        0.6691941918
 H          4.0633721975       -0.8844563598       -1.5579160921
 H          1.6846314473       -0.5332181510       -1.1422806407
 H         -0.9867877107        1.3829200407        2.1658089081
 H         -3.4334663678        1.0858203524        1.9102060988
 H         -3.6319265953       -1.5645856923        1.8215894628
 H         -4.9024446018       -3.0500714676        3.3010458204
 H         -7.3497815748       -3.2873178330        3.0299911009
 H         -8.5068640508       -2.0348222711        1.2209675013
 H         -8.5125333406        0.8172727203       -2.3509216531
 H         -7.3790616810        2.3869478296       -3.9094703751
 H         -4.9601752321        2.8314227770       -3.6440502716
 H         -3.6808548031        1.7020163832       -1.8815613714
 H         -2.7869539581       -0.8009028125       -1.8752819484
 H         -0.3768379843       -0.5294624997       -1.6196141177
 H          2.8090555838        2.0218965512        2.8011055992
  58
  -101.857304635800       0.153937935152825      !
 F          5.2314248695        2.9301907352        0.4178914920
 B          5.0360227542        1.7145148814        1.0621226961
 F          5.2401556514        1.8898993697        2.4206056713
 O          5.9865127365        0.7310918586        0.5459307949
 C          5.6471255482       -0.3343060758       -0.1493729027
 C          6.7543510158       -1.1362882610       -0.6536890850
 C          8.0597568757       -0.6362786348       -0.5320807024
 C          9.1402284534       -1.3554284830       -0.9953668605
 C          8.9512954996       -2.5944007509       -1.5910456385
 C          7.6674423886       -3.1062778047       -1.7118311685
 C          6.5805634065       -2.3925550876       -1.2511448258
 C          4.3179600819       -0.6552357273       -0.3963369980
 C          3.2562808021        0.1314704829        0.0943337723
 C          1.9213590802       -0.1896294846       -0.1092865396
 C          0.9086931411        0.6226819330        0.4250119155
 C         -0.4900755048        0.3942416461        0.2747727807
 C         -1.4011598545        1.3292401085        0.8215910956
 C         -2.7536370446        1.1661637844        0.6974212871
 C         -3.2678312773        0.0470177847        0.0286444172
 N         -4.6652493207       -0.1277522868       -0.0994436498
 C         -5.2994530756       -1.1998414059        0.5086894854
 C         -4.6113843010       -2.1198014550        1.3009780519
 C         -5.2783110195       -3.1782337516        1.8866623995
 C         -6.6440403022       -3.3397138982        1.7046467969
 C         -7.3502333912       -2.4220056007        0.9479324857
 C         -6.6903374182       -1.3546216887        0.3588144609
 O         -7.4444007655       -0.4655713539       -0.3469799079
 C         -6.8137458879        0.5977483873       -0.9203984895
 C         -7.5970997996        1.4966746676       -1.6275405288
 C         -7.0101170891        2.5787097185       -2.2584452263
 C         -5.6346872350        2.7497968348       -2.1980578974
 C         -4.8459794036        1.8608955078       -1.4941334958
 C         -5.4216825704        0.7811176130       -0.8229910375
 C         -2.3872756432       -0.8970111498       -0.5088443921
 C         -1.0313097029       -0.7261019092       -0.3950761411
 N          1.2863306777        1.7458814127        1.1320415990
 C          2.5335384337        1.9975527431        1.2990077664
 N          3.5607195045        1.2656821301        0.8316421359
 H          8.1948475780        0.3284708409       -0.0699607522
 H         10.1368996698       -0.9518700494       -0.8944443469
 H          9.7965371526       -3.1584905385       -1.9557410444
 H          7.5158523930       -4.0736615745       -2.1684314275
 H          5.5966548917       -2.8236622013       -1.3453552582
 H          4.0630810791       -1.5209924686       -0.9812117299
 H          1.6875024969       -1.0606265865       -0.6992928209
 H         -0.9886900972        2.1744606250        1.3486343166
 H         -3.4380334117        1.8814309979        1.1308033618
 H         -3.5527224191       -1.9903167138        1.4607400404
 H         -4.7266711979       -3.8776812870        2.4948839777
 H         -7.1604722810       -4.1687338229        2.1612876780
 H         -8.4153010884       -2.5061215098        0.8035791875
 H         -8.6601521531        1.3225732035       -1.6717197984
 H         -7.6225741829        3.2778086315       -2.8049655052
 H         -5.1693882458        3.5796316191       -2.7063068978
 H         -3.7760425876        1.9917966786       -1.4636976597
 H         -2.7887281273       -1.7524620967       -1.0339792427
 H         -0.3771640473       -1.4633519487       -0.8322185996
 H          2.8090940268        2.8765020148        1.8649961898
  58
  -101.856874962100       9.769701538573521E-002 !
 F          5.3057092963        2.9070902885        0.0565502135
 B          5.0499682945        1.8078890512        0.8690041372
 F          5.2203578129        2.1752845749        2.1905017729
 O          5.9759219814        0.7244605524        0.5427551862
 C          5.6360638751       -0.3462919255       -0.1450928259
 C          6.7263551864       -1.2544338765       -0.4756506461
 C          6.5798931218       -2.3452405940       -1.3439516438
 C          7.6472411444       -3.1781170721       -1.6091216053
 C          8.8831529260       -2.9520122922       -1.0205914837
 C          9.0458971600       -1.8715229165       -0.1651965080
 C          7.9857373415       -1.0328933623        0.1024468503
 C          4.3136487190       -0.6095934385       -0.4824142125
 C          3.2577794228        0.2265499556       -0.0659613233
 C          1.9217319669       -0.0634160745       -0.3074165347
 C          0.9145768142        0.7714538982        0.2016387820
 C         -0.4859860954        0.5424466773        0.0632710126
 C         -1.3916515603        1.3899949224        0.7445738143
 C         -2.7438300779        1.1913810501        0.6797255222
 C         -3.2629414265        0.1316179077       -0.0763538756
 N         -4.6567179143       -0.1005764783       -0.1198577059
 C         -5.1850228997       -1.2831518312        0.3762850307
 C         -4.3895400154       -2.2647916788        0.9693698979
 C         -4.9521591705       -3.4352926038        1.4396813168
 C         -6.3189175933       -3.6509851845        1.3413188049
 C         -7.1303182916       -2.6756734037        0.7902487757
 C         -6.5750688666       -1.4965282246        0.3177730835
 O         -7.4294608424       -0.5598306645       -0.1811631895
 C         -6.9020746687        0.6088892129       -0.6426404519
 C         -7.7870126078        1.5525886416       -1.1404336933
 C         -7.3100964503        2.7448051956       -1.6547877924
 C         -5.9438271512        2.9828064087       -1.6905084783
 C         -5.0543155887        2.0496870464       -1.1945436883
 C         -5.5162688869        0.8558192870       -0.6383728168
 C         -2.3877020217       -0.7046467315       -0.7773627545
 C         -1.0326692924       -0.5038651430       -0.7132339109
 N          1.2970376432        1.8855294771        0.9197815481
 C          2.5459315886        2.1276799770        1.0907090962
 N          3.5678297270        1.3730077148        0.6506081488
 H          5.6359110109       -2.5370346713       -1.8287121131
 H          7.5183638451       -4.0127947804       -2.2828659815
 H          9.7122824468       -3.6110601107       -1.2297535409
 H         10.0059700500       -1.6866574577        0.2937178115
 H          8.1000361152       -0.1913584056        0.7669282021
 H          4.0552084757       -1.4972137163       -1.0319448995
 H          1.6824996944       -0.9519009188       -0.8685277577
 H         -0.9757450517        2.1892158508        1.3363700289
 H         -3.4211538759        1.8283198564        1.2304547931
 H         -3.3287294356       -2.0974863785        1.0665647100
 H         -4.3169999785       -4.1813761053        1.8908035983
 H         -6.7537317329       -4.5681982154        1.7048799762
 H         -8.1988820013       -2.8005805552        0.7203929453
 H         -8.8408612691        1.3261425004       -1.1178777669
 H         -8.0015621328        3.4781075651       -2.0378717758
 H         -5.5648402510        3.9006690979       -2.1115844054
 H         -3.9930557092        2.2350394816       -1.2407766579
 H         -2.7940661694       -1.5003803128       -1.3858489627
 H         -0.3842574478       -1.1531297833       -1.2793973946
 H          2.8257049318        3.0116876142        1.6469254738
  58
  -101.856855918600       9.574795559698857E-002 !
 F          5.1810525538        2.6116624305        1.1806179447
 B          5.0279448538        1.2825285092        1.5637414925
 F          5.2606601341        1.1725728141        2.9189899915
 O          5.9773196625        0.4420647690        0.8349269240
 C          5.6483074959       -0.2456566288       -0.2396699386
 C          6.7593039844       -0.8419413285       -0.9700324980
 C          6.5883948775       -1.8479069121       -1.9303718845
 C          7.6774678969       -2.3737760405       -2.5945272497
 C          8.9585556046       -1.9168194711       -2.3211837928
 C          9.1437831625       -0.9278589159       -1.3655962079
 C          8.0615035667       -0.3993008983       -0.6956264178
 C          4.3258023558       -0.4035331194       -0.6332284955
 C          3.2563194938        0.1179326827        0.1241440533
 C          1.9233057165       -0.0796850621       -0.2060120662
 C          0.9074536260        0.4369651015        0.6147663501
 C         -0.4905910021        0.2858058519        0.3832434804
 C         -1.4027307808        0.7798327170        1.3461798853
 C         -2.7547403755        0.6546546201        1.1801051891
 C         -3.2669171975        0.0410461986        0.0290239057
 N         -4.6643725406       -0.0883086138       -0.1473766010
 C         -5.4082540278       -0.8757268253        0.7174162176
 C         -4.8183217524       -1.6129996453        1.7449779120
 C         -5.5937373798       -2.3843072579        2.5886328781
 C         -6.9697337181       -2.4458903159        2.4233065940
 C         -7.5709626578       -1.7461118893        1.3925006428
 C         -6.8009937686       -0.9716573743        0.5387266429
 O         -7.4448251109       -0.3305602006       -0.4771932093
 C         -6.7014999952        0.4309438414       -1.3285912785
 C         -7.3726201872        1.0780850468       -2.3544769550
 C         -6.6771996253        1.8905803316       -3.2318820976
 C         -5.3111377023        2.0702539823       -3.0706038703
 C         -4.6330445910        1.4275399872       -2.0531690507
 C         -5.3102034450        0.5794058558       -1.1761032528
 C         -2.3856609127       -0.4408348732       -0.9437089627
 C         -1.0298178608       -0.3283106605       -0.7692720955
 N          1.2820782388        1.1087923952        1.7597787922
 C          2.5278363447        1.3004370638        2.0024266324
 N          3.5565440787        0.8600636366        1.2579170490
 H          5.6053615976       -2.2368597129       -2.1445761653
 H          7.5301752870       -3.1515589892       -3.3298219771
 H          9.8059074483       -2.3325088368       -2.8455318105
 H         10.1389394580       -0.5703134166       -1.1455005841
 H          8.1917105645        0.3722064133        0.0465622121
 H          4.0849721595       -0.9372070797       -1.5356881967
 H          1.6919710335       -0.6754371668       -1.0738682399
 H         -0.9913734550        1.2675684925        2.2152582580
 H         -3.4404808724        1.0454327604        1.9181788753
 H         -3.7476831012       -1.5806515079        1.8701131825
 H         -5.1173332941       -2.9446170640        3.3776581047
 H         -7.5719137516       -3.0461679280        3.0863579665
 H         -8.6350880348       -1.7875068899        1.2243355523
 H         -8.4376197944        0.9332030052       -2.4390414874
 H         -7.2021970791        2.3907691611       -4.0298642126
 H         -4.7678427946        2.7199590236       -3.7386498639
 H         -3.5740800215        1.5844059065       -1.9227641254
 H         -2.7858166757       -0.9223772533       -1.8249097702
 H         -0.3740826068       -0.7196170101       -1.5305777825
 H          2.7984558298        1.8564184723        2.8894530475
  58
  -101.856103441000       4.318319270144095E-002 !
 F          5.4562500068        2.7712237350       -0.3328423218
 B          5.0803276021        1.8823684675        0.6702616943
 F          5.2381880696        2.4863993342        1.8982930053
 O          5.9085999200        0.6765792163        0.6104447543
 C          5.5506032275       -0.3928051139       -0.0729280492
 C          6.5660770716       -1.4268624226       -0.2045361868
 C          7.8694267011       -1.1526977370        0.2390066795
 C          8.8594066840       -2.1080363531        0.1640245617
 C          8.5798177626       -3.3651037948       -0.3533305071
 C          7.2965703430       -3.6522991075       -0.7960726433
 C          6.2994869288       -2.7019749374       -0.7242659742
 C          4.2611000332       -0.5347379511       -0.5766560320
 C          3.2416864459        0.3891081772       -0.2714075698
 C          1.9081921207        0.1844353795       -0.6003273158
 C          0.9227464798        1.0535678099       -0.1084464255
 C         -0.4807354848        0.8366067406       -0.2482671972
 C         -1.3764735747        1.5536861038        0.5781474234
 C         -2.7182485757        1.2832850262        0.5777467052
 C         -3.2358121501        0.2936874212       -0.2695514444
 N         -4.6011552954       -0.0632390232       -0.1991443039
 C         -4.9653892154       -1.3541462343        0.1610907041
 C         -4.0265421555       -2.3455007734        0.4513687222
 C         -4.4313871846       -3.6233654290        0.7847783593
 C         -5.7793986942       -3.9417699080        0.8530176540
 C         -6.7273126124       -2.9637640554        0.6123839793
 C         -6.3300889289       -1.6782122520        0.2777945599
 O         -7.3122082825       -0.7519908596        0.0939642828
 C         -6.9432375325        0.5156716679       -0.2430988811
 C         -7.9555194368        1.4447352582       -0.4255375221
 C         -7.6468735087        2.7379626890       -0.8076084589
 C         -6.3247341147        3.0935872363       -1.0318917559
 C         -5.3086507436        2.1764437276       -0.8460082742
 C         -5.5947307373        0.8786278931       -0.4192069512
 C         -2.3777634781       -0.3671009007       -1.1556816350
 C         -1.0321445507       -0.1031077104       -1.1474286886
 N          1.3227064630        2.1312851596        0.6526724592
 C          2.5758524136        2.3231245773        0.8598425076
 N          3.5764393103        1.5220456594        0.4573636951
 H          8.0748966612       -0.1731020003        0.6401971096
 H          9.8558069277       -1.8771820480        0.5109918305
 H          9.3536341576       -4.1159172193       -0.4093550340
 H          7.0732363988       -4.6310525195       -1.1954287015
 H          5.3077305656       -2.9613493332       -1.0588184535
 H          3.9950178332       -1.3904743942       -1.1712840078
 H          1.6453352449       -0.6964928741       -1.1630483445
 H         -0.9607235848        2.2944133347        1.2416311498
 H         -3.3829036340        1.8004919990        1.2547988076
 H         -2.9760642089       -2.1049120500        0.4247349343
 H         -3.6854683214       -4.3723461773        0.9999044230
 H         -6.0916654063       -4.9415246440        1.1088619603
 H         -7.7833338080       -3.1685772852        0.6840371860
 H         -8.9738398185        1.1276452314       -0.2676196186
 H         -8.4365774364        3.4592235229       -0.9444062032
 H         -6.0807056719        4.0925926287       -1.3574167856
 H         -4.2844956817        2.4557857879       -1.0362105971
 H         -2.7903466114       -1.0810949727       -1.8546278758
 H         -0.3948727477       -0.6131475818       -1.8522269525
 H          2.8747727410        3.1927100862        1.4286982555
  58
  -101.854812310100       1.101417746791039E-002 !
 F          5.5379070158        2.7638839685       -0.2988714974
 B          5.0916120505        1.8829310848        0.6810373016
 F          5.2321065396        2.4675485999        1.9204918288
 O          5.8690287404        0.6427606712        0.6389323258
 C          5.4932654775       -0.4038085416       -0.0702258019
 C          6.4544434739       -1.4925166434       -0.1502168255
 C          7.7156928316       -1.3236409267        0.4437854797
 C          8.6473209845       -2.3384334004        0.4314994583
 C          8.3512795207       -3.5521498710       -0.1731823621
 C          7.1116634737       -3.7338800688       -0.7696078813
 C          6.1725261794       -2.7239408969       -0.7606280778
 C          4.2208932531       -0.4792555593       -0.6311684855
 C          3.2293309530        0.4788712771       -0.3440459721
 C          1.8982040651        0.3249260903       -0.7098055230
 C          0.9287859758        1.2054900578       -0.2087957134
 C         -0.4769572243        0.9974459829       -0.3478373942
 C         -1.3638997675        1.6453336640        0.5414712375
 C         -2.6985404989        1.3399177093        0.5629371941
 C         -3.2156501368        0.3895494320       -0.3278798941
 N         -4.5608580416       -0.0315972475       -0.2262481624
 C         -4.8469792417       -1.3579369120        0.0716414660
 C         -3.8495115093       -2.3117451081        0.2809013518
 C         -4.1769150166       -3.6248257755        0.5578423071
 C         -5.5037755165       -4.0176400807        0.6478864792
 C         -6.5081056765       -3.0806723543        0.4853767031
 C         -6.1886282872       -1.7601979908        0.2082287941
 O         -7.2223685750       -0.8793406936        0.0995978071
 C         -6.9281129146        0.4267263256       -0.1549905235
 C         -7.9910711094        1.3121944223       -0.2389096778
 C         -7.7601967305        2.6444925709       -0.5308869813
 C         -6.4655187781        3.0845897012       -0.7647985908
 C         -5.3993377641        2.2103481952       -0.6795327976
 C         -5.6060702132        0.8714217289       -0.3441816210
 C         -2.3715352181       -0.1843556457       -1.2851135529
 C         -1.0328245582        0.1120313729       -1.2974211700
 N          1.3426563036        2.2566726078        0.5806320850
 C          2.5976804704        2.4114811801        0.8094655536
 N          3.5815947847        1.5870216378        0.4143385170
 H          7.9340613476       -0.3778804740        0.9133989911
 H          9.6103834917       -2.1888326481        0.8969505207
 H          9.0782917757       -4.3502742197       -0.1787942565
 H          6.8762327396       -4.6770309678       -1.2411930708
 H          5.2147602299       -2.9012575927       -1.2230040698
 H          3.9386047272       -1.3166430224       -1.2439458127
 H          1.6196753829       -0.5376624867       -1.2930986850
 H         -0.9462077627        2.3526416695        1.2393204917
 H         -3.3538250564        1.7942331750        1.2921334437
 H         -2.8140638615       -2.0152008040        0.2350133573
 H         -3.3866935550       -4.3430512616        0.7105499863
 H         -5.7556855289       -5.0444523573        0.8591808823
 H         -7.5493325687       -3.3452505233        0.5753966100
 H         -8.9864790683        0.9313639774       -0.0760220940
 H         -8.5890677658        3.3315452974       -0.5898271117
 H         -6.2824928479        4.1167607873       -1.0189037824
 H         -4.3973443155        2.5560645709       -0.8783351250
 H         -2.7889374184       -0.8615401300       -2.0170161556
 H         -0.4038841584       -0.3311944105       -2.0531785536
 H          2.9107130551        3.2643025458        1.3957902186
