  58
       -102.16663084
 F          5.1756528687       -1.1868794942        2.6195189246
 B          5.0243307122       -1.5692358728        1.2899596720
 F          5.2559046050       -2.9246592326        1.1797498794
 O          5.9757781933       -0.8409561598        0.4513782201
 C          5.6489296289        0.2342803050       -0.2363751547
 C          6.7616035012        0.9638370347       -0.8305148191
 C          6.5932632433        1.9248099500       -1.8363085500
 C          7.6838348809        2.5881481581       -2.3600992103
 C          8.9639121336        2.3133441920       -1.9011910781
 C          9.1466030567        1.3571170274       -0.9123768910
 C          8.0628148031        0.6879565285       -0.3858890286
 C          4.3270664076        0.6292006506       -0.3962148069
 C          3.2560012829       -0.1273717288        0.1231608624
 C          1.9236322454        0.2041749269       -0.0764666154
 C          0.9061438816       -0.6158533022        0.4381509152
 C         -0.4914273639       -0.3828980664        0.2848302974
 C         -1.4053052757       -1.3451747429        0.7769266289
 C         -2.7569474822       -1.1777245742        0.6496313364
 C         -3.2670062528       -0.0258597053        0.0357291559
 N         -4.6640772903        0.1519624912       -0.0958118063
 C         -5.4075208024       -0.7117390120       -0.8848398057
 C         -4.8173928481       -1.7395322615       -1.6216331079
 C         -5.5923760242       -2.5820726858       -2.3945918654
 C         -6.9681089277       -2.4153771141       -2.4583314983
 C         -7.5694694826       -1.3843111755       -1.7590493617
 C         -6.7999282928       -0.5316478787       -0.9829478294
 O         -7.4438103790        0.4846007551       -0.3424229642
 C         -6.7008941988        1.3349201032        0.4206837526
 C         -7.3720651972        2.3611583364        1.0672129883
 C         -6.6771109648        3.2375077208        1.8812452367
 C         -5.3115002769        3.0748149971        2.0630610544
 C         -4.6333553327        2.0570187638        1.4209742835
 C         -5.3099896880        1.1810074942        0.5713330434
 C         -2.3840219642        0.9462378765       -0.4442669665
 C         -1.0285339013        0.7704276877       -0.3296232168
 N          1.2785620607       -1.7615423626        1.1100514156
 C          2.5237704837       -2.0054929925        1.3036049874
 N          3.5539163491       -1.2617815304        0.8652493849
 H          5.6110718773        2.1401527453       -2.2267567354
 H          7.5385214353        3.3239474783       -3.1377772461
 H          9.8124479935        2.8370594559       -2.3152597394
 H         10.1409626808        1.1358856775       -0.5533190295
 H          8.1910461457       -0.0547171252        0.3854824275
 H          4.0879819088        1.5321425317       -0.9298580898
 H          1.6941103563        1.0725329012       -0.6721886772
 H         -0.9955868558       -2.2148801242        1.2649241907
 H         -3.4440399245       -1.9153112767        1.0389514904
 H         -3.7469304803       -1.8657257167       -1.5876053218
 H         -5.1158311667       -3.3713012348       -2.9544954606
 H         -7.5699587022       -3.0775623414       -3.0598950449
 H         -8.6333620019       -1.2150900671       -1.8020933570
 H         -8.4367452961        2.4468278863        0.9206416921
 H         -7.2021427561        4.0357684453        2.3809532328
 H         -4.7686109216        3.7420292468        2.7139586961
 H         -3.5747743525        1.9255091583        1.5794982649
 H         -2.7825370955        1.8280518922       -0.9260473039
 H         -0.3714231708        1.5312758598       -0.7195094548
 H          2.7926230207       -2.8930409912        1.8596112436
