  58
       -102.16663084
 F          5.1756528687       -1.1868794942        2.6195189246
 B          5.0243307122       -1.5692358728        1.2899596720
 F          5.2559046050       -2.9246592326        1.1797498794
 O          5.9757781933       -0.8409561598        0.4513782201
 C          5.6489296289        0.2342803050       -0.2363751547
 C          6.7616035012        0.9638370347       -0.8305148191
 C          6.5932632433        1.9248099500       -1.8363085500
 C          7.6838348809        2.5881481581       -2.3600992103
 C          8.9639121336        2.3133441920       -1.9011910781
 C          9.1466030567        1.3571170274       -0.9123768910
 C          8.0628148031        0.6879565285       -0.3858890286
 C          4.3270664076        0.6292006506       -0.3962148069
 C          3.2560012829       -0.1273717288        0.1231608624
 C          1.9236322454        0.2041749269       -0.0764666154
 C          0.9061438816       -0.6158533022        0.4381509152
 C         -0.4914273639       -0.3828980664        0.2848302974
 C         -1.4053052757       -1.3451747429        0.7769266289
 C         -2.7569474822       -1.1777245742        0.6496313364
 C         -3.2670062528       -0.0258597053        0.0357291559
 N         -4.6640772903        0.1519624912       -0.0958118063
 C         -5.4075208024       -0.7117390120       -0.8848398057
 C         -4.8173928481       -1.7395322615       -1.6216331079
 C         -5.5923760242       -2.5820726858       -2.3945918654
 C         -6.9681089277       -2.4153771141       -2.4583314983
 C         -7.5694694826       -1.3843111755       -1.7590493617
 C         -6.7999282928       -0.5316478787       -0.9829478294
 O         -7.4438103790        0.4846007551       -0.3424229642
 C         -6.7008941988        1.3349201032        0.4206837526
 C         -7.3720651972        2.3611583364        1.0672129883
 C         -6.6771109648        3.2375077208        1.8812452367
 C         -5.3115002769        3.0748149971        2.0630610544
 C         -4.6333553327        2.0570187638        1.4209742835
 C         -5.3099896880        1.1810074942        0.5713330434
 C         -2.3840219642        0.9462378765       -0.4442669665
 C         -1.0285339013        0.7704276877       -0.3296232168
 N          1.2785620607       -1.7615423626        1.1100514156
 C          2.5237704837       -2.0054929925        1.3036049874
 N          3.5539163491       -1.2617815304        0.8652493849
 H          5.6110718773        2.1401527453       -2.2267567354
 H          7.5385214353        3.3239474783       -3.1377772461
 H          9.8124479935        2.8370594559       -2.3152597394
 H         10.1409626808        1.1358856775       -0.5533190295
 H          8.1910461457       -0.0547171252        0.3854824275
 H          4.0879819088        1.5321425317       -0.9298580898
 H          1.6941103563        1.0725329012       -0.6721886772
 H         -0.9955868558       -2.2148801242        1.2649241907
 H         -3.4440399245       -1.9153112767        1.0389514904
 H         -3.7469304803       -1.8657257167       -1.5876053218
 H         -5.1158311667       -3.3713012348       -2.9544954606
 H         -7.5699587022       -3.0775623414       -3.0598950449
 H         -8.6333620019       -1.2150900671       -1.8020933570
 H         -8.4367452961        2.4468278863        0.9206416921
 H         -7.2021427561        4.0357684453        2.3809532328
 H         -4.7686109216        3.7420292468        2.7139586961
 H         -3.5747743525        1.9255091583        1.5794982649
 H         -2.7825370955        1.8280518922       -0.9260473039
 H         -0.3714231708        1.5312758598       -0.7195094548
 H          2.7926230207       -2.8930409912        1.8596112436
  58
       -102.16651063
 F          5.2248376498       -0.4318057226        2.9399102979
 B          5.0310124021       -1.0730481947        1.7224032229
 F          5.2328758338       -2.4322055624        1.8951699935
 O          5.9842336114       -0.5560064041        0.7420750941
 C          5.6480009267        0.1421494361       -0.3224575068
 C          6.7575699387        0.6466898024       -1.1210525854
 C          8.0617797368        0.5221249027       -0.6186552602
 C          9.1443680910        0.9854884358       -1.3345645355
 C          8.9588034900        1.5841944478       -2.5725863601
 C          7.6761694502        1.7079325481       -3.0868089534
 C          6.5871884500        1.2471899643       -2.3763340434
 C          4.3198422314        0.3917038179       -0.6455442338
 C          3.2558696526       -0.0992213890        0.1378982668
 C          1.9218941041        0.1069978625       -0.1854672858
 C          0.9068210678       -0.4276811333        0.6235828268
 C         -0.4912654977       -0.2749593982        0.3926271731
 C         -1.4050253899       -0.8225751201        1.3245429241
 C         -2.7569907800       -0.6961336916        1.1589871094
 C         -3.2679575296       -0.0241380748        0.0402910599
 N         -4.6648342455        0.1063110877       -0.1370413272
 C         -5.2977022123       -0.4985344445       -1.2117763694
 C         -4.6088713727       -1.2897397880       -2.1320983140
 C         -5.2744585152       -1.8721208895       -3.1931931909
 C         -6.6395978563       -1.6878187281       -3.3570507009
 C         -7.3465983919       -0.9321569205       -2.4390968772
 C         -6.6880554227       -0.3463521938       -1.3690570939
 O         -7.4429391695        0.3585212989       -0.4799723912
 C         -6.8136509883        0.9286769603        0.5859085698
 C         -7.5978434804        1.6349174276        1.4848124634
 C         -7.0121846939        2.2625788963        2.5694479587
 C         -5.6371933581        2.1998694751        2.7432037339
 C         -4.8476629078        1.4968167256        1.8543428476
 C         -5.4221033888        0.8288966870        0.7718976556
 C         -2.3847209412        0.5142113882       -0.9007381950
 C         -1.0292681764        0.3981490920       -0.7273191628
 N          1.2811694614       -1.1377457803        1.7459685141
 C          2.5276246391       -1.3070324308        1.9998087514
 N          3.5569543634       -0.8394858786        1.2710792275
 H          8.1942500583        0.0576647015        0.3453334496
 H         10.1400702402        0.8822600452       -0.9292012340
 H          9.8057073460        1.9489537343       -3.1341360028
 H          7.5271975019        2.1669022328       -4.0534779084
 H          5.6042957764        1.3437497174       -2.8092348642
 H          4.0675544918        0.9788666629       -1.5105108130
 H          1.6906466376        0.6992742605       -1.0556198832
 H         -0.9950241057       -1.3520832320        2.1694237946
 H         -3.4434551527       -1.1301434710        1.8718880654
 H         -3.5507018549       -1.4512837795       -2.0008124356
 H         -4.7222475997       -2.4795590853       -3.8928708158
 H         -7.1549776761       -2.1418807220       -4.1881393036
 H         -8.4112880195       -0.7861136921       -2.5250615945
 H         -8.6604749172        1.6809847861        1.3086430511
 H         -7.6252987657        2.8084026015        3.2685152051
 H         -5.1728754477        2.7056097430        3.5751181673
 H         -3.7780394856        1.4645793683        1.9873568855
 H         -2.7836867799        1.0418184026       -1.7558312477
 H         -0.3730042449        0.8360109457       -1.4622561246
 H          2.8005885303       -1.8753676261        2.8780521245
  58
       -102.16641967
 F          5.2596953859       -1.1992668806        2.6680222671
 B          5.0364438605       -1.5478969699        1.3399342919
 F          5.2271282021       -2.9069903002        1.1910981508
 O          5.9680629341       -0.8294455798        0.4711894849
 C          5.6377908594        0.2540894842       -0.2018154056
 C          6.7316457328        0.9317383972       -0.8858849567
 C          6.5986616958        2.1987938831       -1.4699781338
 C          7.6683676710        2.7920255571       -2.1081966069
 C          8.8923557100        2.1435764202       -2.1854193467
 C          9.0409170814        0.8913254991       -1.6062961678
 C          7.9784026394        0.2934276810       -0.9636554855
 C          4.3180535681        0.6735592345       -0.3104452870
 C          3.2539489929       -0.0662962263        0.2451414080
 C          1.9206471285        0.2753637660        0.0691991183
 C          0.9068720512       -0.5371632688        0.6013614258
 C         -0.4910532882       -0.3146162468        0.4337768063
 C         -1.4021820669       -1.2956518624        0.8918028713
 C         -2.7521544187       -1.1504784556        0.7232354823
 C         -3.2622565825       -0.0013066182        0.1052706572
 N         -4.6566419537        0.1493002335       -0.0815112442
 C         -5.3432144210       -0.7006201965       -0.9344300281
 C         -4.6993497120       -1.7006866466       -1.6640138645
 C         -5.4183593757       -2.5277440052       -2.5049198340
 C         -6.7897391523       -2.3722243491       -2.6444496912
 C         -7.4430028238       -1.3695633917       -1.9504870427
 C         -6.7301047475       -0.5332740376       -1.1054805817
 O         -7.4224029134        0.4546648125       -0.4711304137
 C         -6.7350072944        1.2893414570        0.3585145628
 C         -7.4542625211        2.2855855124        1.0000512803
 C         -6.8157626486        3.1451527698        1.8759978566
 C         -5.4587992820        2.9966425013        2.1233689020
 C         -4.7329437136        2.0085537751        1.4872491194
 C         -5.3519656755        1.1494266467        0.5785938336
 C         -2.3832828462        0.9954511912       -0.3284322767
 C         -1.0289917842        0.8407837371       -0.1754140395
 N          1.2827730918       -1.6740608885        1.2858976058
 C          2.5294052560       -1.9237090088        1.4624738690
 N          3.5568429060       -1.1972286241        0.9898256351
 H          5.6644348117        2.7338567328       -1.4103187508
 H          7.5502286617        3.7712678001       -2.5490890487
 H          9.7235561526        2.6122014558       -2.6906051501
 H          9.9920475903        0.3823852765       -1.6590054448
 H          8.0822539436       -0.6797979911       -0.5108438943
 H          4.0670305704        1.5524045598       -0.8773036192
 H          1.6871016859        1.1399471720       -0.5303943047
 H         -0.9921722496       -2.1641321057        1.3816919003
 H         -3.4379585538       -1.9054508671        1.0799455782
 H         -3.6313496305       -1.8173417253       -1.5708520834
 H         -4.9010019561       -3.2955818664       -3.0582875155
 H         -7.3475384565       -3.0214306245       -3.3001862698
 H         -8.5046184410       -1.2105510688       -2.0503732771
 H         -8.5109972200        2.3621645132        0.8006849112
 H         -7.3784459157        3.9196984631        2.3720307067
 H         -4.9607399151        3.6512783696        2.8211028730
 H         -3.6815921558        1.8868108667        1.6945940506
 H         -2.7830234367        1.8786537945       -0.8066477153
 H         -0.3737518445        1.6199474239       -0.5306290586
 H          2.8016449258       -2.8041532161        2.0279452568
  58
       -102.16635689
 F          5.2478456926       -1.3215419793        2.8563994899
 B          5.0376682692       -1.3759233497        1.4949519470
 F          5.2439888641       -2.6791933994        1.0508016083
 O          5.9617573703       -0.4644203124        0.8213956759
 C          5.6311358344        0.2132481220       -0.2601704557
 C          6.7277589006        0.8912436796       -0.9373752115
 C          6.5317867441        1.8532705983       -1.9379364965
 C          7.6103910866        2.4669664665       -2.5405492607
 C          8.9066428116        2.1454394863       -2.1645682226
 C          9.1163074796        1.2004808879       -1.1702289281
 C          8.0443456122        0.5831011402       -0.5628256464
 C          4.3132489614        0.3000371169       -0.6927268992
 C          3.2501750143       -0.2613847692        0.0442212973
 C          1.9156009988       -0.0999714312       -0.3006303195
 C          0.9054500501       -0.6174270473        0.5254316515
 C         -0.4940549984       -0.4553982664        0.3047341042
 C         -1.3985603143       -0.8560299758        1.3160166308
 C         -2.7482266658       -0.6783098971        1.1772827209
 C         -3.2641018386       -0.1133397034        0.0039906763
 N         -4.6575489163        0.0945095250       -0.1332349762
 C         -5.3898427693       -0.6161656516       -1.0699651323
 C         -4.8094675274       -1.5918055656       -1.8809171030
 C         -5.5726546711       -2.2798057288       -2.8041011259
 C         -6.9286909519       -2.0175873512       -2.9340886979
 C         -7.5284520089       -1.0719104411       -2.1217753092
 C         -6.7716458141       -0.3775629577       -1.1910381256
 O         -7.4214174197        0.5227515645       -0.4003784802
 C         -6.6925263069        1.2070889049        0.5261490841
 C         -7.3670909118        2.1223698785        1.3190735418
 C         -6.6754695227        2.8664857583        2.2581898095
 C         -5.3043133310        2.7051782281        2.3933618725
 C         -4.6233042468        1.7946711809        1.6089139565
 C         -5.3059596492        1.0162371587        0.6735526888
 C         -2.3928643566        0.2533617421       -1.0255652459
 C         -1.0382125330        0.0943735245       -0.8768368236
 N          1.2848994845       -1.2723807690        1.6783683412
 C          2.5326423495       -1.4478477871        1.9247285222
 N          3.5566723049       -0.9916476249        1.1844714868
 H          5.5350681317        2.1379229859       -2.2355463491
 H          7.4425212104        3.2084634026       -3.3082099191
 H          9.7454821105        2.6308267269       -2.6404211098
 H         10.1225365429        0.9465547671       -0.8709977996
 H          8.1947315436       -0.1546069996        0.2092109884
 H          4.0683484249        0.8241923100       -1.5994878394
 H          1.6771706211        0.4869125004       -1.1727161047
 H         -0.9843726347       -1.3058544143        2.2039700656
 H         -3.4295188652       -0.9856596319        1.9576539838
 H         -3.7587542676       -1.8096920297       -1.7723368468
 H         -5.1045659425       -3.0296576624       -3.4222515754
 H         -7.5205891123       -2.5548329163       -3.6577345211
 H         -8.5829917888       -0.8569748110       -2.1857307596
 H         -8.4297101429        2.2363216548        1.1770628993
 H         -7.2037070628        3.5768245354        2.8737768549
 H         -4.7574648233        3.2952263006        3.1119248767
 H         -3.5553341277        1.6833353851        1.7092683709
 H         -2.7977771922        0.6863345059       -1.9294625401
 H         -0.3872419356        0.3967111995       -1.6816227740
 H          2.8082454896       -1.9970107753        2.8144833949
  58
       -102.16613994
 F          5.2970592237       -0.0718290362        2.9224864719
 B          5.0429851685       -0.8818562237        1.8211098206
 F          5.2097734884       -2.2043222395        2.1866687809
 O          5.9727279029       -0.5554758596        0.7409708360
 C          5.6373203065        0.1349048963       -0.3295549439
 C          6.7308947955        0.4649708792       -1.2339203031
 C          6.5892855172        1.3354688163       -2.3236162276
 C          7.6595716175        1.6000586814       -3.1528990528
 C          8.8936896100        1.0087651331       -2.9242208336
 C          9.0516358161        0.1511601370       -1.8447718038
 C          7.9885163101       -0.1159270093       -1.0097192849
 C          4.3163284162        0.4752217186       -0.5961260148
 C          3.2572223834        0.0593217001        0.2361902357
 C          1.9224931766        0.3038457032       -0.0572542711
 C          0.9119278004       -0.2047475083        0.7737675421
 C         -0.4876918526       -0.0632942679        0.5409108949
 C         -1.3971343514       -0.7443511087        1.3846036060
 C         -2.7485993341       -0.6765632627        1.1821518264
 C         -3.2631608896        0.0823726993        0.1222116501
 N         -4.6561660703        0.1289549289       -0.1139797481
 C         -5.1819540797       -0.3640933040       -1.2989686287
 C         -4.3847356919       -0.9569728112       -2.2793237692
 C         -4.9448236549       -1.4241453251       -3.4522930253
 C         -6.3107544322       -1.3227853920       -3.6718068860
 C         -7.1239522825       -0.7718789532       -2.6979004778
 C         -6.5712551732       -0.3025432654       -1.5163047455
 O         -7.4274306085        0.1963798929       -0.5812300544
 C         -6.9025870759        0.6547889081        0.5898395562
 C         -7.7893309675        1.1526152341        1.5318247465
 C         -7.3149249009        1.6639562472        2.7263366655
 C         -5.9492923803        1.6966407427        2.9683942720
 C         -5.0580023699        1.2006154845        2.0370056863
 C         -5.5175207261        0.6474320821        0.8408125085
 C         -2.3841396460        0.7831739826       -0.7102516976
 C         -1.0298254398        0.7160963007       -0.5056225993
 N          1.2897531660       -0.9255807560        1.8876872591
 C          2.5376041031       -1.0993262457        2.1331861833
 N          3.5625458833       -0.6598565228        1.3822830056
 H          5.6467967261        1.8223734563       -2.5173135600
 H          7.5344255574        2.2755163024       -3.9867594640
 H          9.7251428306        1.2174977711       -3.5804713828
 H         10.0102849484       -0.3099170738       -1.6579103812
 H          8.0990815582       -0.7821057753       -0.1690279399
 H          4.0615378667        1.0268074224       -1.4835267587
 H          1.6869351359        0.8669766293       -0.9454429746
 H         -0.9847004848       -1.3383483068        2.1839913155
 H         -3.4288356056       -1.2271138646        1.8161344364
 H         -3.3246070186       -1.0564938193       -2.1090893830
 H         -4.3083462799       -1.8751700703       -4.1973113698
 H         -6.7435756373       -1.6838985170       -4.5909276184
 H         -8.1920103771       -0.6997565828       -2.8258078880
 H         -8.8425534316        1.1324766322        1.3022588447
 H         -8.0078009966        2.0470732771        3.4582892261
 H         -5.5721900934        2.1153742315        3.8881029507
 H         -3.9972032086        1.2444891577        2.2255415838
 H         -2.7870095320        1.3938367019       -1.5060947203
 H         -0.3784353780        1.2821581363       -1.1519882616
 H          2.8137254240       -1.6576321277        3.0170248807
  58
       -102.16434268
 F          5.4477003219        0.2870648093        2.7930778964
 B          5.0717724036       -0.7055425037        1.8925181090
 F          5.2238142360       -1.9402927372        2.4842184199
 O          5.9043550736       -0.6356987703        0.6902416152
 C          5.5521147291        0.0598998373       -0.3731549162
 C          6.5715267155        0.1991605152       -1.4023235191
 C          7.8725695129       -0.2512386005       -1.1283799451
 C          8.8660451738       -0.1693435759       -2.0795128864
 C          8.5923494028        0.3619642079       -3.3320492927
 C          7.3114508657        0.8116366336       -3.6189627531
 C          6.3108987343        0.7329911230       -2.6728349197
 C          4.2646481038        0.5690575995       -0.5141987431
 C          3.2411450188        0.2573293809        0.4029377282
 C          1.9093699093        0.5924798322        0.1971818014
 C          0.9194530041        0.0945965295        1.0577733657
 C         -0.4828434857        0.2410033827        0.8375163185
 C         -1.3835522616       -0.5900835117        1.5428736315
 C         -2.7243842476       -0.5827210349        1.2679328453
 C         -3.2359636443        0.2764526948        0.2854886226
 N         -4.6002826061        0.2139873363       -0.0767922161
 C         -4.9611824990       -0.1316286341       -1.3726231871
 C         -4.0198294815       -0.4144384416       -2.3637599390
 C         -4.4213029996       -0.7332414764       -3.6464068900
 C         -5.7684160541       -0.7939946648       -3.9700865345
 C         -6.7189414240       -0.5606589597       -2.9928471680
 C         -6.3251119456       -0.2407329359       -1.7025271090
 O         -7.3098379502       -0.0635512311       -0.7777788175
 C         -6.9441921920        0.2591222740        0.4945828698
 C         -7.9590944238        0.4349758121        1.4220561359
 C         -7.6537233111        0.8025736916        2.7202464070
 C         -6.3321339517        1.0190529663        3.0826863083
 C         -5.3134816918        0.8396186463        2.1671093320
 C         -5.5964077666        0.4272713054        0.8639402797
 C         -2.3729549100        1.1667803501       -0.3630852247
 C         -1.0282809992        1.1516211347       -0.0946209158
 N          1.3133905317       -0.6789599899        2.1288327321
 C          2.5652334017       -0.8919861267        2.3227550325
 N          3.5697853124       -0.4842566357        1.5293302498
 H          8.0734532494       -0.6632638167       -0.1523366988
 H          9.8605848988       -0.5217738043       -1.8489112580
 H          9.3689042843        0.4234348784       -4.0796021215
 H          7.0926948498        1.2218739059       -4.5942436046
 H          5.3210628267        1.0732906531       -2.9320688457
 H          4.0033177099        1.1734030965       -1.3645751141
 H          1.6512539340        1.1651732648       -0.6787072652
 H         -0.9723710626       -1.2625419878        2.2780369871
 H         -3.3928712651       -1.2630809636        1.7757757574
 H         -2.9701067662       -0.3935581791       -2.1193372632
 H         -3.6734784854       -0.9428383992       -4.3950549789
 H         -6.0780298092       -1.0384253821       -4.9735153002
 H         -7.7744673454       -0.6269122849       -3.2019857171
 H         -8.9767977973        0.2835184957        1.0998743951
 H         -8.4454761836        0.9342713438        3.4402090616
 H         -6.0905426932        1.3333786190        4.0858618900
 H         -4.2897157509        1.0237344692        2.4519025260
 H         -2.7809528598        1.8744104391       -1.0711357556
 H         -0.3871169278        1.8597352524       -0.5951003301
 H          2.8594326548       -1.4708067810        3.1873605096
  58
       -102.16316034
 F          5.5284364610        0.2360111303        2.7888137123
 B          5.0818786960       -0.7286931295        1.8913671751
 F          5.2155796318       -1.9774222647        2.4575504247
 O          5.8641491013       -0.6706240219        0.6548991467
 C          5.4949809121        0.0557883032       -0.3821400903
 C          6.4605746392        0.1487444789       -1.4658997219
 C          7.7189741292       -0.4524803251       -1.3013787592
 C          8.6544880229       -0.4282354930       -2.3123741445
 C          8.3652898742        0.1959595304       -3.5178339434
 C          7.1285811420        0.7997219232       -3.6950899543
 C          6.1855888362        0.7788849211       -2.6889249797
 C          4.2249819965        0.6225767786       -0.4537892536
 C          3.2287362635        0.3246164641        0.4961350896
 C          1.8995616745        0.6976610035        0.3428032763
 C          0.9249654688        0.1869376164        1.2119977423
 C         -0.4794551844        0.3343952990        1.0008396702
 C         -1.3721256602       -0.5613456645        1.6317777913
 C         -2.7056671075       -0.5731597573        1.3210798508
 C         -3.2158749636        0.3339540148        0.3824692432
 N         -4.5598396550        0.2437855629       -0.0452063349
 C         -4.8420190646       -0.0328024096       -1.3769924858
 C         -3.8417152414       -0.2312513498       -2.3301409167
 C         -4.1651494610       -0.4869404540       -3.6485048938
 C         -5.4908318517       -0.5660228520       -4.0476063730
 C         -6.4981064914       -0.4140361764       -3.1120344256
 C         -6.1826255915       -0.1582230218       -1.7863041582
 O         -7.2192956052       -0.0591440764       -0.9077667956
 C         -6.9290645806        0.1744260981        0.4031197732
 C         -7.9950607477        0.2488354948        1.2857814931
 C         -7.7681718185        0.5196280970        2.6232286367
 C         -6.4743204301        0.7419609256        3.0716791064
 C         -5.4051490867        0.6660220606        2.2002341293
 C         -5.6080312351        0.3518714006        0.8555888244
 C         -2.3660619117        1.2966457088       -0.1736204896
 C         -1.0284500870        1.2994248066        0.1279252883
 N          1.3319266035       -0.6199474920        2.2525690792
 C          2.5855012982       -0.8558108581        2.4085660886
 N          3.5739899413       -0.4518657087        1.5939098368
 H          7.9320161167       -0.9372531116       -0.3620742559
 H          9.6152521828       -0.8995144440       -2.1662822258
 H          9.0953433647        0.2109987771       -4.3130549883
 H          6.8984745385        1.2864903274       -4.6318190034
 H          5.2302150636        1.2474913100       -2.8627564774
 H          3.9481374155        1.2490852568       -1.2827915653
 H          1.6264638314        1.2950585394       -0.5118322864
 H         -0.9596993259       -1.2714423733        2.3299267653
 H         -3.3653572309       -1.3067286668        1.7617760730
 H         -2.8072389186       -0.1937624286       -2.0290605585
 H         -3.3727749971       -0.6316545361       -4.3660130721
 H         -5.7396185522       -0.7607146426       -5.0784544292
 H         -7.5386461392       -0.4961166159       -3.3818467213
 H         -8.9896094243        0.0954946258        0.8987922101
 H         -8.5994227948        0.5712055301        3.3079944096
 H         -6.2942792921        0.9796346828        4.1082800249
 H         -4.4037492056        0.8557831958        2.5526855991
 H         -2.7781872313        2.0403318696       -0.8411296338
 H         -0.3950478949        2.0594814273       -0.3013764015
 H          2.8931284680       -1.4562200657        3.2535185141
