61
 energy: -96.548280593800 gnorm: 0.000050738162 xtb: 6.7.1 (edcfbbe)
C            8.72055202103490        0.79932093170946        0.63228056349419
C            7.98368174496447       -0.12357395688196        1.35573412766723
C            6.62805961570285       -0.26500421835643        1.12560759061944
C            5.98926722012978        0.51789782439566        0.16553135659497
C            4.54308258327367        0.39675138535828       -0.05957585722146
C            3.89828098265254       -0.82389680830714       -0.32201038137579
C            4.65342809338842       -2.00566370559226       -0.54895153928804
C            4.05359190707093       -3.19397568924813       -0.82894445252447
C            2.65051999037262       -3.27321214620306       -0.92675168675279
C            1.88758003499160       -2.16325975442013       -0.73508472599734
C            2.46528837000754       -0.90662740225576       -0.41198113724833
C            1.65604398151076        0.22993410281894       -0.23343600691158
C            0.19388960497460        0.18256937482874       -0.17796527861138
C           -0.46645537419095       -0.71886522768568        0.65835544905651
C           -1.84177375351497       -0.73274117116285        0.74035147196125
C           -2.60621820222611        0.15155687397888       -0.02292437101249
N           -3.99999759717616        0.13389758122085        0.05260869994840
C           -4.67779465132184       -1.07874765852926        0.22369427788462
C           -5.81566318451068       -1.14619565967499        1.02740146239780
C           -6.48450371095036       -2.34399173409093        1.18756322622394
C           -6.02921300938975       -3.49207051559040        0.56008819892713
C           -4.89720680051499       -3.43152373162214       -0.23608587713386
C           -4.22637761377159       -2.23673188070420       -0.40941671116160
C           -4.72310069913149        1.32985765114473       -0.03589196358751
C           -5.94620979461007        1.36718231296073       -0.70483957969763
C           -6.65980473793737        2.54716701163053       -0.78445129765063
C           -6.16558174628200        3.70654858107081       -0.20953063363958
C           -4.94888912654070        3.67556120431016        0.45212512597770
C           -4.23174654211336        2.49875912031668        0.54494123584858
C           -1.94862843017146        1.05870700579196       -0.85602178016438
C           -0.57296007285161        1.07947077528021       -0.92099026900851
C            2.30494580809463        1.45927339523739       -0.07192237363823
N            1.73035354915577        2.66244776181796        0.07346722052514
S            2.87764078620138        3.75965725601634        0.28292420499607
N            4.15852947109792        2.80213060922601        0.21568260961247
C            3.74485300164156        1.54172472683049        0.01414586517737
C            6.73506246250678        1.45468390064301       -0.54499015063751
C            8.09133021771064        1.58889376679997       -0.31583786085904
H            9.78023181458661        0.90676533882145        0.81175303929203
H            8.46646915247927       -0.73349258556727        2.10571857773326
H            6.05048838781658       -0.96987889884906        1.70700575000415
H            5.73024551870345       -1.93550459959079       -0.52326131167036
H            4.64899826078302       -4.07770766535322       -1.00473273422206
H            2.18831746223921       -4.21600465371012       -1.17965148590754
H            0.81664953022033       -2.21592884449598       -0.85864926787202
H            0.11037595133029       -1.38863101210436        1.27986311055340
H           -2.33665369311662       -1.42312179031439        1.40782174846714
H           -6.16717653463840       -0.25456602363595        1.52567829908906
H           -7.36333674020756       -2.38260597073103        1.81432918292584
H           -6.55291480901905       -4.42688468947959        0.69026536925581
H           -4.53824883723611       -4.32027011888858       -0.73415841338068
H           -3.35081232075949       -2.18953285200403       -1.04036338794918
H           -6.32911544600356        0.46666554628534       -1.16250402353611
H           -7.60500653156724        2.56277953636415       -1.30701002839585
H           -6.72464981928453        4.62745882401266       -0.27673745225647
H           -4.55793921444326        4.57336162149507        0.90783047615124
H           -3.28799650355323        2.47555628704547        1.06971477905216
H           -2.52870643480628        1.74507500587194       -1.45511357707988
H           -0.07856001348299        1.78422308239926       -1.57090147364106
H            6.24452002259010        2.07022462591685       -1.28327501267048
H            8.66096739809770        2.31410794343212       -0.87851791673561
