145
 energy: -197.197329397930 gnorm: 0.000068528459 xtb: 6.7.1 (edcfbbe)
C            0.28998546647163       -1.45102070275532        7.88527137039640
C            0.20238960285958       -1.15946811700208        6.41760390709462
C           -0.72797654811583       -0.25492060537615        5.91970498949622
C           -0.81979832287833        0.00497751288026        4.56620090408838
C            0.01789247742984       -0.64880148175086        3.66489423197632
N           -0.07047467975449       -0.39356476770792        2.28699056224993
C            1.10000747110372       -0.30045979507358        1.52785976907450
C            2.24997782323528        0.27762146609729        2.06469812512590
C            3.40614813203460        0.36851029024224        1.31609375805031
C            3.44828557667249       -0.09426065876039        0.00659797510682
C            4.72805124070457       -0.03949942561135       -0.80163344712191
C            4.47869339040796        0.27590297279218       -2.25934910440985
C            5.24008235740095       -0.28880598259574       -3.27645695163454
C            5.00745292496643        0.09141122152563       -4.58827731759009
C            4.02659341614501        1.03777974553316       -4.83767257123705
N            3.30051258831946        1.59178002083849       -3.87942290877032
C            3.52290917342698        1.21884259435997       -2.63224822821094
C            5.49043754547668       -1.33615895273950       -0.59545830354707
C            5.07822803976058       -2.61912457731358       -0.86757964128698
C            5.92425443524995       -3.69938117031510       -0.60261403750309
C            5.43870445317040       -5.10557601426743       -0.92198043752057
C            6.46688628182751       -6.18475156648716       -0.56925070503016
C            5.14275439852657       -5.20087584506154       -2.42662057437128
C            4.15846313488530       -5.38541938690471       -0.12028147047795
C            7.17823249559764       -3.43750621191176       -0.05904610320032
C            7.60098764081401       -2.14751739107792        0.22492118442409
C            6.75421096771346       -1.08738084086006       -0.04270908677034
C            6.90713061836235        0.34565438356094        0.13829252569666
C            7.95131524357562        1.10871628115106        0.62834968059057
C            7.80995080280638        2.48688613726834        0.68885733933336
C            6.64837100152837        3.12823283059651        0.26883002967318
C            6.46875695489011        4.63778906050661        0.32964195966259
C            5.27480779711416        4.96044414885573        1.24113788707963
C            7.70014687439304        5.36182346834560        0.88257449450539
C            6.20023567134592        5.16685052817301       -1.08751871805777
C            5.60237163344822        2.34601708840942       -0.22781833594073
C            5.73092083476626        0.97852079086810       -0.28575037269347
C            2.30408743817013       -0.68243100656131       -0.52296029752909
C            1.14739253221205       -0.78848174963044        0.22187519783462
C           -1.32162766266209       -0.22164028703938        1.69003805864894
C           -2.42969896425445       -0.93675221008205        2.14640240425781
C           -3.67063482833117       -0.74653293929175        1.57489454887857
C           -3.84929734587505        0.14899450487096        0.52473684071324
C           -5.21119273957806        0.30170728007601       -0.12148249076004
C           -6.32547784790107        0.34032660962701        0.90049015703325
C           -6.16659515180299        1.00350131463577        2.11393287239959
C           -7.23402620029406        1.07724126630601        2.99231402416847
C           -8.43161056716397        0.48384670255513        2.62433792352184
N           -8.59999619171223       -0.14464826179095        1.47241995736331
C           -7.57756176739536       -0.20760708295590        0.63726534431963
C           -5.39051191964545       -0.79245421777607       -1.15972125092190
C           -5.35908510893138       -2.15743668084171       -0.97228784500218
C           -5.53953842501679       -3.01243241976009       -2.05786574325018
C           -5.51964885061272       -4.52734130655938       -1.91434639166451
C           -4.37885147317273       -5.09536745854369       -2.77219720703027
C           -6.86386484815175       -5.09709921360246       -2.39201991448231
C           -5.29905879926610       -4.98091238692940       -0.46775813898511
C           -5.74405557523470       -2.44780253345886       -3.31738992436801
C           -5.77196721382055       -1.07942758947544       -3.51759721300135
C           -5.59276924475609       -0.24098751709221       -2.43011707160427
C           -5.57612064641008        1.20664123633680       -2.31779375554735
C           -5.74174783156916        2.20792252955874       -3.25724222368547
C           -5.67577785688833        3.53228638776687       -2.85147360122858
C           -5.44897747831419        3.88652029063379       -1.52493354422951
C           -5.36467487302356        5.33256088047152       -1.05832142583814
C           -5.56435523479116        6.33774135305349       -2.19671820131956
C           -6.45358378882436        5.58305614232686       -0.00392657017588
C           -3.97829732475506        5.57812855724195       -0.44321236958521
C           -5.28842381304855        2.86485855163046       -0.58514395057710
C           -5.34486363237564        1.54870845558066       -0.97880633986322
C           -2.74014632361662        0.84123866836009        0.05467294192662
C           -1.49793343325087        0.67166824466904        0.63337877045935
C            0.95031583340330       -1.56066355431694        4.15690688873434
C            1.03922131515062       -1.80417484001485        5.51304556814318
H            1.32147763833724       -1.62648215595102        8.18362094534672
H           -0.11219654187120       -0.62687153643165        8.46980800484181
H           -0.28469775124280       -2.34734873988283        8.12328407853668
H           -1.38579531087342        0.26406274289576        6.60256898548985
H           -1.54157143470931        0.72009884183655        4.19876574750163
H            2.23195878790056        0.65875274518405        3.07522860250478
H            4.28469321256345        0.81913658784384        1.75366144479229
H            6.00300186862986       -1.01822636782444       -3.04480369683495
H            5.57931638622277       -0.33572290310257       -5.39777099857850
H            3.80647463935992        1.37345341942356       -5.84292198976056
H            2.89462128589338        1.69457695060618       -1.88931902495695
H            4.09782757425283       -2.78157655692006       -1.28850782747312
H            7.38702722042771       -6.04990913331763       -1.13341360110056
H            6.69469632196167       -6.17569153081984        0.49434095034484
H            6.06226925257365       -7.16409067003078       -0.81747861740688
H            4.36797593162983       -4.49935823719515       -2.72438992496594
H            6.04088717430417       -4.98217749281138       -3.00150203619169
H            4.80749047734140       -6.20463527929298       -2.67953399966784
H            4.35528384322236       -5.29249359636450        0.94624583973961
H            3.80529754760051       -6.39509806361764       -0.31992051213686
H            3.36481475276200       -4.68999380065680       -0.38022944323117
H            7.85511863534977       -4.24814961798654        0.15609216238790
H            8.58031941109138       -1.97931413157938        0.64881082086623
H            8.86750799930091        0.64281900317191        0.96095109691693
H            8.63562024474943        3.06157498369486        1.07555450347375
H            5.44977792823684        4.57136315984652        2.24262948073385
H            4.35550076732023        4.52257066123847        0.86157722207931
H            5.13635171501772        6.03753941085741        1.30857009037166
H            8.57290583226268        5.18307592373078        0.25841128292564
H            7.51217368685020        6.43362872137124        0.89730127007694
H            7.91697920794686        5.04577577686850        1.90053455347654
H            7.03032829621807        4.91712033155085       -1.74593174031027
H            6.08896922009575        6.24904914053041       -1.06770154379210
H            5.29376672284341        4.73998427437826       -1.50848234147183
H            4.68574650053540        2.80586468299118       -0.56436344496024
H            2.31215049563508       -1.06018224390680       -1.53564820895723
H            0.27047845971808       -1.25198158678860       -0.20649395780216
H           -2.31143725460433       -1.64294269302047        2.95528011884966
H           -4.51474639588868       -1.30288490481815        1.95685211830199
H           -5.21498100286369        1.44760227426977        2.36987896076290
H           -7.13874057506891        1.58355247478094        3.94081953524602
H           -9.29783841815441        0.50924263949448        3.27290882099853
H           -7.77068195629616       -0.72748233493158       -0.29260624723986
H           -5.19886646306607       -2.54677751039607        0.01892275091261
H           -3.42501984071086       -4.68147765071733       -2.45013486026577
H           -4.51599376148440       -4.85653427216858       -3.82327194965054
H           -4.33838827826126       -6.17800188122802       -2.67103231031142
H           -7.67940857092523       -4.68108928729089       -1.80327912156908
H           -6.87270650585031       -6.17916155851779       -2.27770620612236
H           -7.04554824113562       -4.86462235162265       -3.43768404001275
H           -5.29593191850201       -6.06847523712651       -0.42675948489606
H           -4.34290748557235       -4.62785443002793       -0.08723215601238
H           -6.09644430215034       -4.62366845244962        0.18053874799452
H           -5.88606474585775       -3.09074609768198       -4.17313004002773
H           -5.93218271674225       -0.67581675327751       -4.50671699995487
H           -5.92107517419150        1.96752468066510       -4.29507587282091
H           -5.80695533776751        4.29568455372766       -3.60085068859937
H           -5.49284330141737        7.34941919952854       -1.80191502796174
H           -4.79914802618983        6.22161209642486       -2.96100480173105
H           -6.54551030663968        6.22414824939329       -2.65230492015034
H           -7.43768591595631        5.38411582120599       -0.42445329794189
H           -6.42228727368158        6.61916491951098        0.32699977591808
H           -6.32126247512561        4.94440302418907        0.86530510493013
H           -3.80203266014418        4.93095561071303        0.41179822110502
H           -3.20021328501758        5.38783364106461       -1.18022748557272
H           -3.89396762081816        6.61110975875451       -0.11179427072537
H           -5.11217907719859        3.10017395061327        0.45343932978816
H           -2.84818936357375        1.53538598766854       -0.76558789094119
H           -0.65432585617897        1.23780490724539        0.26647571118036
H            1.60545845984862       -2.07467775763842        3.46825554495035
H            1.76861857563558       -2.51469010062330        5.87552035355715
