93
 energy: -144.418340834020 gnorm: 0.000040436929 xtb: 6.7.1 (edcfbbe)
N           -0.00001246932916        0.00009898885212        1.25547704270473
C            0.00005441051153        0.00005015943841        0.10887792442000
C            0.00008173774061        0.00000274662209       -1.30472647120774
C            1.20970012888214       -0.12268529182884       -2.01045577272336
N            2.41502205890822       -0.26566322346225       -1.32409445408202
C            2.70789530680970       -1.23501983000266       -0.37955563614754
C            1.93995431545552       -2.30008874050434        0.06386911146356
C            2.49546185914687       -3.15095506673462        0.99722502674519
C            3.79891620065227       -2.97776406796918        1.48003095047894
C            4.34390970085513       -3.91520746563670        2.47380930000783
C            5.65036342471334       -4.38602122049286        2.36548467643636
C            6.16020985170729       -5.27016973677869        3.29783689056941
C            5.37535157816495       -5.69517085662869        4.35657065730999
C            4.07616061308422       -5.23080140117188        4.47608085260248
C            3.56303957014289       -4.35029303883510        3.54210094180681
C            4.57475333579553       -1.92902210887675        1.00341759487001
C            4.03332294547987       -1.05739790136761        0.07213556788162
C            4.55988822155636        0.07954684058879       -0.63415240267332
C            5.77933936001070        0.73643961825685       -0.60405094365496
C            5.97310762035687        1.84577885224763       -1.41820365859093
C            7.25793895470388        2.56156849635273       -1.40252117176708
C            8.46008112165920        1.85857976916440       -1.36828643221468
C            9.66861765102805        2.52930421580608       -1.35267248067949
C            9.69723958635327        3.91372523195306       -1.36632316336505
C            8.50840258767265        4.62313057857193       -1.39724757693041
C            7.29906461724956        3.95381636501143       -1.41740036622001
C            4.93486529693482        2.28573773848173       -2.24922159618351
C            3.71386513095201        1.64340191652252       -2.29897122047214
C            3.53423767166599        0.52911950703157       -1.49427240983039
C            1.19725167552256       -0.10560892699270       -3.40103258946768
C            0.00020051351827        0.00000378886778       -4.08628260029058
C           -1.19690856360033        0.10560208247595       -3.40113317561362
C           -1.20948408135341        0.12267438676923       -2.01055508856186
N           -2.41487185909695        0.26564785762254       -1.32430964366472
C           -2.70783486013656        1.23501051478858       -0.37980335904512
C           -1.93994020391139        2.30008510862313        0.06368956257829
C           -2.49553956002993        3.15095233546847        0.99699049831361
C           -3.79904189852645        2.97776346107286        1.47966641533263
C           -4.34414898035143        3.91520731865835        2.47338058607354
C           -5.65058991033906        4.38601999807841        2.36489749502745
C           -6.16055437791483        5.27015643454317        3.29719611755690
C           -5.37582923185271        5.69514188354523        4.35603497478061
C           -4.07665192036162        5.23077431753618        4.47570092415741
C           -3.56341052013178        4.35028208755196        3.54177189558596
C           -4.57483092655886        1.92901901314190        1.00298193546917
C           -4.03330548153466        1.05739087710332        0.07176066598475
C           -4.55980701677075       -0.07955212643147       -0.63457461419674
C           -5.77926517103918       -0.73643559683102       -0.60457772112011
C           -5.97297264384334       -1.84577054178610       -1.41875002509301
C           -7.25780624711307       -2.56155881293680       -1.40316971711142
C           -8.45995310738493       -1.85857386625998       -1.36901436129108
C           -9.66848914120284       -2.52930199043315       -1.35349747423660
C           -9.69710682284590       -3.91372289937765       -1.36716699318729
C           -8.50826550875412       -4.62312454639635       -1.39800656161262
C           -7.29892798820235       -3.95380671464284       -1.41806155757940
C           -4.93466168173334       -2.28572673659395       -2.24968423003858
C           -3.71365054490562       -1.64340144702063       -2.29932462321125
C           -3.53407901043735       -0.52912689769542       -1.49460127258107
H            0.94088436793790       -2.47251003936312       -0.30773940117042
H            1.91695249909064       -3.99186707725381        1.34907092760361
H            6.26193925054349       -4.07143731823898        1.53200489420469
H            7.17353775327892       -5.63177884907618        3.19733255304027
H            5.77468297814492       -6.38504604426704        5.08541471034410
H            3.46078058516942       -5.55515697202501        5.30284922599690
H            2.55508349637019       -3.97695883521707        3.64975427291734
H            5.58146022468835       -1.78298461846147        1.36453374804149
H            6.55893849607980        0.40611689363353        0.06540454762782
H            8.44424213173243        0.77818356722788       -1.37382945068036
H           10.59298151695942        1.97017314947150       -1.33171944768944
H           10.64168756630812        4.43743856265212       -1.35219892858407
H            8.52415324546768        5.70352252832048       -1.40270888810206
H            6.37500027317416        4.51372268098520       -1.42256985872803
H            5.10237890814983        3.14410585033168       -2.88275258536914
H            2.92548934991136        2.00614934285079       -2.94214095723022
H            2.13051449194252       -0.20126442906845       -3.93418667959265
H            0.00024633721607        0.00000576011906       -5.16556955356418
H           -2.13012577025382        0.20125021921475       -3.93436903641068
H           -0.94083561488396        2.47251011206952       -0.30782408499068
H           -1.91706738873115        3.99186890399320        1.34888668383746
H           -6.26205646557237        4.07145114627266        1.53133183123548
H           -7.17387046036326        5.63176463492401        3.19656980753968
H           -5.77525607124295        6.38499922973726        5.08484342008115
H           -3.46137856311263        5.55511497115643        5.30255432724299
H           -2.55546864601909        3.97694453000799        3.64954618233581
H           -5.58157525009539        1.78298364098198        1.36399430225121
H           -6.55891772247045       -0.40610464415984        0.06481147146773
H           -8.44411842642188       -0.77817752272172       -1.37454130734286
H          -10.59285635548521       -1.97017402886883       -1.33260349325080
H          -10.64155456064060       -4.43743897771826       -1.35311963003364
H           -8.52401233933610       -5.70351653124448       -1.40347788911084
H           -6.37486184521473       -4.51371054711593       -1.42316719634042
H           -5.10212872307161       -3.14408681581606       -2.88323842258826
H           -2.92522458718821       -2.00615391029894       -2.94243033843996
