93
 energy: -144.325281387876 gnorm: 0.000111719815 xtb: 6.7.1 (edcfbbe)
N           -0.00134437537579        0.52426580883809        1.18532866080657
C            0.00051165935867       -0.09132629546856        0.19658148934879
C            0.00165058724257       -0.75477720206523       -1.00607658150278
C            1.23729004733045       -1.22374939003116       -1.60641113225492
N            2.44935920316089       -0.79114239584061       -1.06634940078309
C            3.48561357228317       -1.60963502892623       -0.67373901601479
C            3.57494152096707       -2.99546080720584       -0.68257734330719
C            4.73184000563352       -3.57480889004641       -0.20318403496286
C            5.80215657836291       -2.80827065465198        0.28303411628435
C            7.01959525330722       -3.46579270789874        0.77010326390891
C            8.27597582111490       -2.92491550625464        0.49668205506269
C            9.42445627139058       -3.54459656040490        0.95031671795387
C            9.34071904640659       -4.71172732176200        1.69186083868562
C            8.09856134090505       -5.25613933073256        1.97441044934025
C            6.94881658486725       -4.64231770676049        1.51580099759370
C            5.69615146094635       -1.41779645665432        0.31110791267861
C            4.54115860937362       -0.81837524103597       -0.15332634718678
C            4.10077786918364        0.54891793802902       -0.23946409883753
C            4.68259789072388        1.75695400798871        0.09374026266788
C            3.97969345419816        2.93836785046922       -0.14077823612326
C            4.56582902199871        4.23304365691518        0.22249385046330
C            3.77700133629771        5.23614002268008        0.78544208062076
C            4.32905898249752        6.45435688378965        1.13217417388894
C            5.67589594685625        6.69685355874054        0.91658096180119
C            6.46910950467363        5.70920445136909        0.35584083907821
C            5.92137321253987        4.48720387833439        0.01533541323445
C            2.71081276601103        2.88404316434242       -0.73716853389184
C            2.11970699875483        1.68963792513887       -1.08881455214496
C            2.80476339058859        0.51393824973175       -0.81221312108237
C            1.21208950882859       -2.11648667892504       -2.64775294737830
C            0.00207759244474       -2.57124503083585       -3.18569110446676
C           -1.20824780100695       -2.11650838928441       -2.64824127297282
C           -1.23360088107788       -1.22300306454146       -1.60764283325665
N           -2.44573578946964       -0.78875241490655       -1.06901647592109
C           -2.80176843494623        0.51711068438111       -0.81970403688565
C           -2.11614003270291        1.69195237044733       -1.09817045168351
C           -2.70877603082087        2.88747801097731       -0.75276811342606
C           -3.97927359434664        2.94354461205810       -0.16012812388606
C           -4.56728858086011        4.23931035904319        0.19627023075693
C           -5.92308576021111        4.49064139893250       -0.01282126944906
C           -6.47267120552902        5.71345502576013        0.32180362215857
C           -5.68112504050477        6.70488919919471        0.87820174346906
C           -4.33402618782389        6.46533847498885        1.09541802952725
C           -3.78015553638785        5.24621415700222        0.75481838924390
C           -4.68206223743028        1.76263024947615        0.07738871096943
C           -4.09930430631695        0.55361940001186       -0.25057087994136
C           -4.53749074674587       -0.81389806567416       -0.15626929759438
C           -5.68985237087756       -1.41286084842327        0.31526442482177
C           -5.80081022593785       -2.80268733264007        0.27829225042185
C           -7.01921131078921       -3.46120635067668        0.76080190457163
C           -7.54470883465190       -4.56694742936785        0.09211644185110
C           -8.69463527492167       -5.18415026253118        0.54546250823747
C           -9.33828148348585       -4.71426608638244        1.67866075110792
C           -8.82455803385105       -3.61886856291427        2.35358644701532
C           -7.67874635144537       -2.99546815131436        1.89838156580892
C           -4.73283178436299       -3.57001656663658       -0.21296227806789
C           -3.57176301745779       -2.99205888117004       -0.68312837435830
C           -3.48188036056173       -1.60615050752736       -0.67474482395374
H            2.76100240032934       -3.60495300185499       -1.04407189267389
H            4.82647292454813       -4.64998539541295       -0.22051033177254
H            8.34986963581711       -2.02563922434252       -0.09749588840348
H           10.39053405448169       -3.11753060000623        0.72306385952226
H           10.23874102858601       -5.19414677234591        2.04822985584878
H            8.02667002851792       -6.16270876925204        2.55765921117436
H            5.98334512268813       -5.06156354713323        1.75835930452911
H            6.49416746794816       -0.81854016530079        0.72253484124154
H            5.65864743004166        1.78423375623257        0.55406593987737
H            2.73140437806108        5.04443763864834        0.97596029992280
H            3.70742847410191        7.21876063907297        1.57536504368013
H            6.10569474220714        7.65058065384443        1.18487278302774
H            7.51921009767493        5.89436512886274        0.18154222239855
H            6.54205442093362        3.72874811804571       -0.43934957946491
H            2.19651652080638        3.80844273924133       -0.95172700876166
H            1.15613376938662        1.67362834701618       -1.57202096702781
H            2.14551258764460       -2.43615298682871       -3.08820842162428
H            0.00233634674750       -3.23002494910912       -4.03740777734205
H           -2.14162037871539       -2.43620579404199       -3.08876220406253
H           -1.15069316221283        1.67446408678918       -1.57757527579934
H           -2.19416903979841        3.81120356096681       -0.96946075309221
H           -6.54257171244031        3.72934592735949       -0.46438321948025
H           -7.52297834294563        5.89619516286558        0.14623671678600
H           -6.11237842751374        7.65926293444063        1.14181677497478
H           -3.71359003849245        7.23276392389407        1.53504954316468
H           -2.73436814530038        5.05702506721447        0.94679427632438
H           -5.65974390009124        1.79127006980031        0.53413409966817
H           -6.50291122068369       -0.81025054896943        0.69068326685164
H           -7.05954944149999       -4.92723034031326       -0.80334914754700
H           -9.09318205709332       -6.03495278340329        0.01196683869943
H          -10.23516265078042       -5.19946281901844        2.03413626106334
H           -9.31881594549090       -3.25139485549423        3.24122902811238
H           -7.27242939624148       -2.15545261137643        2.44255994264782
H           -4.81348276612375       -4.64632884230522       -0.19389748372321
H           -2.75228447069247       -3.60170669610985       -1.03194766748816
