93
 energy: -144.419570487908 gnorm: 0.000042593567 xtb: 6.7.1 (edcfbbe)
N           -0.00734793914406        0.52003821765406        1.15646259991353
C           -0.00359715634238       -0.04168228176527        0.15680832919571
C            0.00015036329812       -0.80059940747710       -1.03521216889088
C            1.21871939630992       -1.22751214414718       -1.59202337291372
N            2.42833785995396       -0.79465900953586       -1.05363777959144
C            3.47517428934178       -1.61520647205764       -0.66871222279555
C            3.57151726973909       -2.99797417935463       -0.68649481542392
C            4.73225569134544       -3.57193889573050       -0.20778853870449
C            5.79238469786780       -2.80338634453035        0.28921318919638
C            7.01484500740341       -3.46096702697408        0.77541624585456
C            8.26880087205400       -2.93400506283733        0.47454780025604
C            9.41985482530970       -3.55127699756862        0.92697229394414
C            9.33817304335003       -4.70295176459588        1.69155279013261
C            8.09693081351182       -5.23375874635729        1.99999510188567
C            6.94496301869726       -4.62012270972654        1.54462290783086
C            5.67834299539427       -1.41908535321377        0.32584636685303
C            4.51953499954498       -0.82281705461483       -0.14425168213198
C            4.07987221651063        0.54397488949155       -0.22782935613482
C            4.67262283078616        1.75183447474316        0.10323431732705
C            3.97994813153595        2.93290421121779       -0.12991044195218
C            4.57501081702004        4.22917689855398        0.22870916543460
C            3.80210349288618        5.22249688673985        0.82562578104096
C            4.36145078417285        6.43967275339344        1.16683069642285
C            5.70023150863420        6.68711533137598        0.91351570760161
C            6.47762374763966        5.70735796795406        0.31912533274762
C            5.92112299036382        4.48780707173590       -0.01849834368847
C            2.71194930881493        2.88599388411219       -0.72271888985761
C            2.10972025496834        1.69429679638021       -1.06921057712072
C            2.78627789251141        0.51743413950397       -0.79144781037512
C            1.20673681999272       -2.10411942583465       -2.67227924079581
C            0.00583723195106       -2.54458582987308       -3.19896193923859
C           -1.19797968580076       -2.10567711984853       -2.67749441710947
C           -1.21543803445233       -1.22841379319674       -1.59802936746139
N           -2.42748331718833       -0.79487977570064       -1.06557306497510
C           -2.78569707612170        0.51787091670984       -0.80754524331562
C           -2.10819792009850        1.69362770751193       -1.08758914889300
C           -2.71132801130759        2.88654501149044       -0.74707549236345
C           -3.98090520950952        2.93547757712189       -0.15781120677489
C           -4.57748369418080        4.23332192309094        0.19249169033426
C           -5.92281042267385        4.49017610795914       -0.06082079383757
C           -6.48059204149550        5.71161764787695        0.26778150757563
C           -5.70537025533400        6.69495657859673        0.85911093437990
C           -4.36746522720722        6.44918330759465        1.11864314930002
C           -3.80677679103139        5.23013230046380        0.78644599506440
C           -4.67393463901332        1.75525026873160        0.07855163328983
C           -4.08057181959056        0.54618797400936       -0.24703391561159
C           -4.51896599605794       -0.82064294079081       -0.15726425744125
C           -5.67560767682092       -1.41616277783537        0.31920324771976
C           -5.79358124205502       -2.79988149130122        0.27686954519504
C           -7.01381755526065       -3.45807680686716        0.76777023110584
C           -7.57507866428960       -4.52672218492156        0.07254804348366
C           -8.72365804529604       -5.14220174031008        0.53392630364343
C           -9.32871420821772       -4.70387033867788        1.69981906775754
C           -8.77856358875064       -3.64348373533204        2.40026732574939
C           -7.63264045141420       -3.02399187130651        1.93788233637301
C           -4.73662612034782       -3.56939312382555       -0.22569590750883
C           -3.57244361822386       -2.99705514883084       -0.69774223201331
C           -3.47482759280712       -1.61432804013882       -0.68017230104017
H            2.76474805935724       -3.61489015464923       -1.05341441882114
H            4.83450066037338       -4.64668053657136       -0.23303750917273
H            8.33909676317517       -2.04496553379564       -0.13554168288142
H           10.38555673280403       -3.13393047459530        0.68047550877253
H           10.23771185829006       -5.18430880408529        2.04592881062816
H            8.02663145974655       -6.12916379358041        2.60066516975754
H            5.97938266828059       -5.02928076422321        1.80464488744632
H            6.47093206366917       -0.81530333868304        0.74093128723056
H            5.65286464754430        1.77090278492626        0.55477125055465
H            2.76199790160456        5.02732905813607        1.04263515055748
H            3.75134189646429        7.19853913506540        1.63516583766145
H            6.13615836076158        7.63908030478872        1.17867537460295
H            7.52204430141089        5.89590804177299        0.11599337310761
H            6.52879215631575        3.73344575860481       -0.49734616196572
H            2.20166061564969        3.81313156167172       -0.93664913682670
H            1.14466196569332        1.69186265892508       -1.55226161670882
H            2.14423695114456       -2.41982639767023       -3.10284120268955
H            0.00818408100839       -3.21967387096623       -4.04115959181427
H           -2.13330045420848       -2.42269983701812       -3.11178174253179
H           -1.14195019651761        1.68918696352585       -1.56829967626562
H           -2.20070966252460        3.81295882956485       -0.96334111097371
H           -6.52865582997630        3.73296375850486       -0.53749315697341
H           -7.52429333657232        5.89881051035594        0.05978367532764
H           -6.14228529099844        7.64846947292750        1.11698707418442
H           -3.75906898726979        7.21088489814177        1.58460852330554
H           -2.76737073703229        5.03641956006265        1.00811688357066
H           -5.65571741811049        1.77616247182839        0.52665065551114
H           -6.48106257049070       -0.80912607613389        0.70357676753627
H           -7.11754471423489       -4.86277391819841       -0.84691440236547
H           -9.15049406209687       -5.96645401530157       -0.01925719396709
H          -10.22476475623583       -5.18670071064925        2.06098372072759
H           -9.24369230440251       -3.29970838147436        3.31290253088291
H           -7.19797769445850       -2.20898019136813        2.49830212470525
H           -4.82674290098369       -4.64552609243595       -0.21899955300094
H           -2.76188060938598       -3.61489065486256       -1.05473951273695
