47
 energy: -72.317377287019 gnorm: 0.000074056112 xtb: 6.7.1 (edcfbbe)
C            2.05662494706421       -2.76325824467640       -0.36784347175592
C            1.18810925107864       -1.75312192751509        0.42216978870254
C            1.32391926695866       -1.93755478764336        1.95294635227419
C            1.55812727749333       -0.33505977171757        0.03948116363573
C            0.53003642637354        0.58951113326968       -0.27548296818368
C            0.83681154188498        1.81822263220273       -0.89464680465150
C            2.12773112399124        2.19075953467526       -1.09181413885124
C            3.19190138316924        1.39648038702837       -0.58560063184880
C            4.50998309829262        1.84768778868920       -0.68284285176604
C            5.56136698998629        1.10270539725945       -0.18432333299646
C            5.29353681414079       -0.11026932060170        0.43684010347176
C            4.00463683156818       -0.58783574549037        0.53005520583499
C            2.90117993652091        0.12827458676302        0.00293486314021
N           -0.78510947473358        0.28304411116243       -0.02030398010816
C           -1.72682099084198        1.27705675460650        0.23434770380753
C           -1.35287879734634        2.48622515391719        0.81867908592096
C           -2.28344309953798        3.48971376608326        1.01928441434001
C           -3.60880079905056        3.29858201519521        0.63373385459297
C           -4.00935877520740        2.08424771831978        0.12643558985492
C           -3.09103317660633        1.03821533330175       -0.05012252422124
C           -3.54862900216723       -0.27806721381213       -0.44245946272556
O           -4.72331400883277       -0.50495080974322       -0.80128691282594
C           -2.56503505353201       -1.33203746918582       -0.28134887656849
C           -2.95766215002931       -2.67062000750015       -0.36976572078533
C           -2.03830634716255       -3.67920265195798       -0.18246010318533
C           -0.70705030998437       -3.37828345896232        0.06985514260370
C           -0.26590369620625       -2.05789260419264        0.11720339446693
C           -1.20158988607333       -1.03868662962549       -0.04274299754609
H            1.52482125355574       -3.08046747861053       -1.26245672519938
H            2.27815135044790       -3.64146811791940        0.23290488636918
H            2.99300835362428       -2.32365880679050       -0.69196244886586
H            2.32865628556662       -1.72721053387235        2.30325426676961
H            0.64132692843055       -1.25831831921620        2.46145170584207
H            1.05907296010526       -2.95540484718373        2.22913555948853
H            0.02600009531315        2.43442446626757       -1.25278022963164
H            2.36350884672625        3.10405532085363       -1.61581453429193
H            4.69542731978625        2.80278947470569       -1.15251742571564
H            6.57505499485442        1.46468100181147       -0.26347822115641
H            6.10303450547595       -0.68844874322003        0.85807431556722
H            3.85584369642294       -1.52054382594250        1.04510999394434
H           -0.33039894270357        2.63031734927719        1.13600532610547
H           -1.97649323149310        4.41797522903257        1.47513456915753
H           -4.32531343399215        4.09634886907415        0.75880027154418
H           -5.03733131748370        1.89270497463826       -0.13915936983301
H           -3.99714508411921       -2.87623896102640       -0.57149783689093
H           -2.35226046925344       -4.71138933943929       -0.22435320455837
H           -0.00904193114072       -4.18367283165624        0.22884946445012
