47
 energy: -72.399064837953 gnorm: 0.000040022811 xtb: 6.7.1 (edcfbbe)
C            2.06526498396639       -2.75421870042274       -0.32931275721082
C            1.18197984800546       -1.74221859557792        0.44008640399254
C            1.28648207148500       -1.91194486474348        1.96979827927892
C            1.55501460976826       -0.31865610504839        0.05136835161960
C            0.55963355116615        0.58567074395812       -0.26651229001256
C            0.86353763709049        1.80257217969964       -0.91665566046992
C            2.15405986162138        2.17299419365251       -1.12128184931239
C            3.20719371838981        1.38027921594630       -0.62050162444000
C            4.53973144170325        1.82690664631992       -0.71814263772539
C            5.56978818091920        1.09213633871568       -0.20466261845664
C            5.28788018682452       -0.11627746049872        0.44342529541200
C            4.00584338130375       -0.58612718012643        0.52925412422944
C            2.91140296818467        0.12508372440321       -0.01894866342336
N           -0.79264337506117        0.29215486136207       -0.03732763112119
C           -1.72596944759455        1.28024453450881        0.22082780998099
C           -1.35666598880085        2.50027232813263        0.80109517918320
C           -2.30003793716461        3.47254619467341        1.04658224848555
C           -3.63853013306066        3.26270533619529        0.72778494261861
C           -4.02263438806604        2.05064570784832        0.20415578473510
C           -3.08551304247604        1.04411316090985       -0.03884908641245
C           -3.54555001087855       -0.26670836287492       -0.51195085592681
O           -4.66816381378190       -0.46443864466803       -0.94944373627570
C           -2.55037906687252       -1.33212127411028       -0.34314437576784
C           -2.95446791218603       -2.66523325671565       -0.40446944090892
C           -2.04171647625909       -3.67251299139952       -0.19962145674924
C           -0.71306450276178       -3.35670604668404        0.05576196243100
C           -0.26861243524401       -2.04559991947006        0.09332985906617
C           -1.20381731091360       -1.02393297741063       -0.09604675848246
H            1.52347382141162       -3.13346549751307       -1.19331724745431
H            2.33675591933485       -3.59581149125784        0.30331170915240
H            2.97508125876689       -2.29997470637866       -0.70465282139876
H            2.28779987404609       -1.71069557822694        2.33693337148607
H            0.60382108488498       -1.21874510320264        2.45921018925763
H            1.00427507219664       -2.92335342211103        2.25425430765442
H            0.05182957651700        2.41255318019626       -1.28258725010558
H            2.38740200442372        3.08515158831350       -1.64974329754587
H            4.72582917663570        2.77717734452545       -1.19791359171522
H            6.58917593719080        1.44001516618142       -0.27799594250938
H            6.09458730851516       -0.68239986861202        0.88601945919071
H            3.84289793907225       -1.50819642786388        1.06006929901443
H           -0.32733372736532        2.66838390229272        1.08053415550286
H           -1.99420555868204        4.40304710655921        1.50162465557928
H           -4.36714246387936        4.03702630504926        0.91174658697558
H           -5.05536276848020        1.83283292968157       -0.02338058307200
H           -3.99603708530384       -2.86809356866309       -0.60064790125769
H           -2.35030904217202       -4.70633738731067       -0.22638615739479
H           -0.01762437121623       -4.16030553049967        0.24199294158006
