  47
        -72.39906033
 C          2.0658980763       -2.7548431693       -0.3312229722
 C          1.1817078375       -1.7434343661        0.4374086949
 C          1.2841551246       -1.9133570671        1.9672301173
 C          1.5548729284       -0.3200580358        0.0484910952
 C          0.5592539567        0.5833275677       -0.2713870902
 C          0.8630411575        1.7986654402       -0.9245717442
 C          2.1535724144        2.1697813308       -1.1279708686
 C          3.2065118443        1.3796493773       -0.6226377322
 C          4.5385391370        1.8285851862       -0.7167686061
 C          5.5681705259        1.0968383421       -0.1981155619
 C          5.2863530070       -0.1109941160        0.4510381709
 C          4.0049256180       -0.5832568008        0.5331986634
 C          2.9109937657        0.1249790788       -0.0197861971
 N         -0.7928531860        0.2905483313       -0.0401493805
 C         -1.7246386273        1.2797780829        0.2195818319
 C         -1.3521774554        2.5013849635        0.7945794922
 C         -2.2937212523        3.4752012182        1.0405962018
 C         -3.6337837053        3.2652218638        0.7283429615
 C         -4.0208874701        2.0514971939        0.2109729827
 C         -3.0855286019        1.0435229263       -0.0329409780
 C         -3.5486432354       -0.2683645623       -0.4995896806
 O         -4.6747547286       -0.4671140336       -0.9278818762
 C         -2.5522819065       -1.3334965774       -0.3374265190
 C         -2.9563058942       -2.6667064276       -0.3993285631
 C         -2.0420226007       -3.6740542184       -0.2017711479
 C         -0.7125592461       -3.3584186667        0.0495167003
 C         -0.2686158744       -2.0472106094        0.0895834668
 C         -1.2046202182       -1.0254165299       -0.0961934735
 H          1.5321240927       -3.1175925539       -1.2072301182
 H          2.3192117068       -3.6067066064        0.2950283329
 H          2.9858999073       -2.3061874748       -0.6878256394
 H          2.2833991463       -1.7067099809        2.3369012500
 H          0.5965275144       -1.2243371933        2.4554154268
 H          1.0068806559       -2.9264945320        2.2504845336
 H          0.0513806775        2.4071536376       -1.2930999687
 H          2.3870108809        3.0808900188       -1.6582071793
 H          4.7244197450        2.7784257713       -1.1974761026
 H          6.5870823686        1.4469218537       -0.2676552723
 H          6.0923413561       -0.6741994329        0.8986308573
 H          3.8418550433       -1.5039608286        1.0663370409
 H         -0.3216145065        2.6697964013        1.0692590108
 H         -1.9851976121        4.4070981322        1.4909375784
 H         -4.3610411368        4.0407086177        0.9125965492
 H         -5.0548476159        1.8332693408       -0.0105912612
 H         -3.9987919481       -2.8695215939       -0.5903621866
 H         -2.3501248521       -4.7080136965       -0.2306474478
 H         -0.0161472057       -4.1622806980        0.2304257236
