47
 energy: -72.317377272895 gnorm: 0.000096987456 xtb: 6.7.1 (edcfbbe)
C            2.05667577562245       -2.76394073982407       -0.39102663971041
C            1.18865739819123       -1.75608083257692        0.40256996011257
C            1.32317714284767       -1.94753344893438        1.93264958172162
C            1.56100407221338       -0.33664172067408        0.02724657016840
C            0.53455426819019        0.59141229499071       -0.28203310881256
C            0.84345263195428        1.82338363374504       -0.89382356907708
C            2.13497682441589        2.19510242518502       -1.08835220806472
C            3.19777399906741        1.39597065754359       -0.58693501320797
C            4.51663790150336        1.84567729407966       -0.68080095541565
C            5.56662712894508        1.09567368546623       -0.18698376779594
C            5.29670471557981       -0.12116812583759        0.42577809174259
C            4.00704167654597       -0.59723764792191        0.51549623134590
C            2.90487573963157        0.12446839411216       -0.00670214318660
N           -0.78116563251433        0.28567130231295       -0.02881586195983
C           -1.72135396534913        1.27981241852376        0.23097070369455
C           -1.34563365794064        2.48513440932138        0.82205821762471
C           -2.27453608785184        3.48926048447241        1.02726693799445
C           -3.59991248339291        3.30256404062062        0.63959529406628
C           -4.00236140790553        2.09159930943154        0.12575262951358
C           -3.08580746608141        1.04480850418332       -0.05556709218717
C           -3.54540187032725       -0.26859212269402       -0.45499959276307
O           -4.72022201378472       -0.49161460618410       -0.81592471921683
C           -2.56372524635650       -1.32505716952427       -0.29879861204429
C           -2.95865323714956       -2.66252712807815       -0.39394054132102
C           -2.04094839488469       -3.67361163047382       -0.21203643250468
C           -0.70911351015498       -3.37627293792181        0.04153690818689
C           -0.26577492018059       -2.05684861767402        0.09568858294975
C           -1.19978477245301       -1.03524969103094       -0.05865154479908
H            2.98930072099628       -2.32068843228510       -0.72119983622909
H            1.52135026401305       -3.08473510060969       -1.28222605001470
H            2.28530282667662       -3.64042141230984        0.20964692759463
H            2.32868147837102       -1.74257149029675        2.28400643503831
H            0.64311569795626       -1.26774885049572        2.44379130937670
H            1.05423867717080       -2.96548850151877        2.20446922818657
H            0.03367411969525        2.44298345398211       -1.24838818618788
H            2.37229409664107        3.11128222796496       -1.60660438836618
H            4.70377850547923        2.80359824253021       -1.14403106564114
H            6.58091634379099        1.45656172486240       -0.26340286003825
H            6.10518374427434       -0.70351071469491        0.84320733412384
H            3.85647699335939       -1.53333661132674        1.02383298285360
H           -0.32310545838274        2.62567253111313        1.14081581331946
H           -1.96627913835873        4.41458121524346        1.48818151495653
H           -4.31507077630792        4.10095042433279        0.76836445509808
H           -5.03050979435262        1.90333405370108       -0.14144977622054
H           -3.99855457736743       -2.86535958043897       -0.59632093641475
H           -2.35668920335542       -4.70503895947029       -0.25901516042720
H           -0.01238528143057       -4.18362501739727        0.19629561635430
