  94
       -137.48257261
 C         -4.9852095716        0.8165319849       -0.0517191476
 C         -5.8454366669       -0.2333872087        0.1757587688
 C         -7.2619744524       -0.1910767760        0.1315449572
 C         -7.9957230664       -1.3592414963        0.4401295570
 C         -9.3641945393       -1.3855072616        0.4066560365
 C        -10.0907842476       -0.2369369015        0.0602778611
 N        -11.4816513453       -0.2627140065        0.0182413450
 C        -12.2220284725        0.8656749475        0.3844601691
 C        -13.3974912255        1.1892634229       -0.2947812423
 C        -14.1289914644        2.3011184533        0.0732919957
 C        -13.7014674272        3.1097322037        1.1143052045
 C        -12.5334956361        2.7945093536        1.7899035690
 C        -11.7978051275        1.6811510914        1.4343730599
 C        -12.1463199908       -1.4250912306       -0.3890550583
 C        -11.6326234766       -2.2051833164       -1.4257548571
 C        -12.2873637917       -3.3556156317       -1.8191451319
 C        -13.4619068100       -3.7434177736       -1.1940543463
 C        -13.9788728080       -2.9692413656       -0.1676109995
 C        -13.3289971450       -1.8198600275        0.2372912337
 C         -9.3814773995        0.9329315797       -0.2469795309
 C         -8.0117550915        0.9551594473       -0.2135682949
 C         -3.5760172348        0.7662891666       -0.0254810587
 C         -2.8278161573        1.9479224884       -0.2659130661
 C         -1.4656092803        1.9569448324       -0.2555030964
 C         -0.7137850839        0.7769057352       -0.0258179209
 C          0.7147980271        0.7753644301       -0.0339939593
 C          1.4690970995        1.9571484034        0.1778284202
 C          2.8312571616        1.9457907693        0.1858992134
 C          3.5769064753        0.7596408281       -0.0399187865
 C          4.9860901270        0.8078629156       -0.0152423319
 C          5.8459262642       -0.2438396103       -0.2364194924
 C          7.2621140766       -0.2020982541       -0.1806541818
 C          8.0001676327       -1.3683817170       -0.4862145404
 C          9.3682334276       -1.3953058899       -0.4334035688
 C         10.0898653704       -0.2492972565       -0.0689094914
 N         11.4796893677       -0.2732763859       -0.0028990118
 C         12.2199494031        0.8650952010       -0.3400261101
 C         13.3674506399        1.2001172988        0.3798483386
 C         14.0958542817        2.3237004419        0.0421946822
 C         13.6926760026        3.1319031754       -1.0087638794
 C         12.5526815365        2.8045837945       -1.7254522320
 C         11.8203945853        1.6798995901       -1.3999907417
 C         12.1449280340       -1.4318486170        0.4123537455
 C         11.6109012523       -2.2311272457        1.4239556040
 C         12.2720550818       -3.3743075980        1.8277787393
 C         13.4734017392       -3.7358401691        1.2392264140
 C         14.0099015003       -2.9434221355        0.2369821356
 C         13.3535500523       -1.8018238839       -0.1790514665
 C          9.3761541960        0.9196805242        0.2322294780
 C          8.0073729364        0.9427111394        0.1788390128
 C          2.8221770123       -0.4190033255       -0.2699318851
 C          1.4598837878       -0.4104830529       -0.2552508635
 C         -1.4613997649       -0.4040686161        0.2120858985
 C         -2.8237302437       -0.4100424792        0.2236562517
 H         -5.4079269728        1.7877900122       -0.2727072378
 H         -5.4242409122       -1.1992648705        0.4182579472
 H         -7.4552893103       -2.2518637385        0.7210913688
 H         -9.8973502800       -2.2900838423        0.6610744947
 H        -13.7255689212        0.5665374597       -1.1141511800
 H        -15.0351622068        2.5425803021       -0.4621790358
 H        -14.2748986097        3.9791902832        1.3969948228
 H        -12.1961028022        3.4157067146        2.6061825132
 H        -10.8944642539        1.4288377190        1.9696995447
 H        -10.7232152426       -1.8965424554       -1.9203353289
 H        -11.8813610925       -3.9491523352       -2.6247931331
 H        -13.9709308482       -4.6427707328       -1.5049241118
 H        -14.8907966781       -3.2673408917        0.3282920379
 H        -13.7261793293       -1.2233327095        1.0455236012
 H         -9.9295887119        1.8199469850       -0.5305789982
 H         -7.5001534540        1.8680705486       -0.4744299729
 H         -3.3670631990        2.8636612499       -0.4683357632
 H         -0.9479986611        2.8794919440       -0.4704704803
 H          0.9535875110        2.8835438624        0.3807880428
 H          3.3724340541        2.8633698569        0.3743161024
 H          5.4097587161        1.7801892559        0.1991275990
 H          5.4251330342       -1.2094247573       -0.4808016736
 H          7.4635905364       -2.2593782034       -0.7798837725
 H          9.9046341419       -2.2987154563       -0.6853858018
 H         13.6759127940        0.5772390119        1.2067460706
 H         14.9798456124        2.5744746023        0.6094556425
 H         14.2630274015        4.0107033249       -1.2675002982
 H         12.2351242825        3.4253032111       -2.5500585913
 H         10.9386901643        1.4180881115       -1.9662704382
 H         10.6813122194       -1.9427249587        1.8922233406
 H         11.8500375216       -3.9825471020        2.6139767069
 H         13.9881763261       -4.6284817817        1.5598521634
 H         14.9432086314       -3.2202731845       -0.2303631171
 H         13.7671821211       -1.1908564745       -0.9680448825
 H          9.9200945325        1.8052349929        0.5280728834
 H          7.4927235914        1.8548700367        0.4361873885
 H          3.3380121536       -1.3472267696       -0.4628411928
 H          0.9339137582       -1.3309922150       -0.4589451334
 H         -0.9374186658       -1.3219396437        0.4321579974
 H         -3.3414361522       -1.3342680999        0.4302938109
