  95
       -146.38594800
 C          4.3451614614        6.2639053691       -1.9594923419
 C          4.6503639123        5.6666825406       -0.5914200992
 C          3.9763852798        4.3104289447       -0.4076240023
 C          4.2560128240        3.7144362870        0.9756150688
 N          3.6198549390        2.4368052031        1.1378769644
 C          2.3425103381        2.2114743475        1.5875232002
 C          1.4039510744        3.1270914378        2.0473087210
 C          0.1815423512        2.6553713424        2.4731094451
 C         -0.1025508653        1.2894578932        2.4800197587
 C          0.8147546293        0.3670244810        2.0306642723
 C          2.0407699099        0.8152320839        1.5343079612
 C          3.1910303517        0.2213099596        0.9478555555
 C          4.1244296307        1.2297811501        0.7348373207
 C          5.2877127227        0.6495461352        0.1623176016
 C          6.5101222093        1.1437059024       -0.2832796295
 C          7.4118460273        0.2713478797       -0.8538492669
 C          7.0979952150       -1.0764569089       -1.0107601010
 C          5.8909423886       -1.5927489702       -0.5794740268
 C          4.9871246846       -0.7396339865        0.0373471138
 N          3.7148884955       -0.9981388867        0.5324711348
 C          2.9591519975       -2.1520837918        0.3702300826
 C          3.4870822133       -3.4419788445        0.4815164889
 C          2.6940377495       -4.5541390484        0.2250476039
 C          1.3575301896       -4.3777715184       -0.0558746270
 C          0.7982770790       -3.1034421917       -0.0674161024
 C          1.6022029941       -1.9917620885        0.0860997466
 C         -0.6381711132       -3.0721665124       -0.2973288058
 C         -1.4480320176       -1.9682988782       -0.1172053596
 C         -2.8066036978       -2.0496231886       -0.4255782972
 N         -3.5750611095       -0.9088030319       -0.2330754216
 C         -4.8487869154       -0.8300942311        0.3165405676
 C         -5.7324688512       -1.8425002119        0.6626037152
 C         -6.9486254867       -1.4958880533        1.2195439597
 C         -7.2935948417       -0.1658403514        1.4473900054
 C         -6.4117502003        0.8517132058        1.1533192818
 C         -5.1770940318        0.5294584024        0.5973416741
 C         -4.0276309368        1.2728710163        0.2189471887
 C         -3.0763348206        0.3887175424       -0.2780895516
 C         -1.9451808253        1.1529655028       -0.6733743724
 C         -0.7178663245        0.8929232555       -1.2867680644
 C          0.1674421853        1.9285532000       -1.4804550842
 C         -0.1516925092        3.2317864820       -1.0988087045
 C         -1.3724989516        3.5328534449       -0.5370451429
 C         -2.2786917798        2.5002332168       -0.3274915759
 N         -3.5407216554        2.5521536336        0.2095953605
 C         -4.2820729732        3.7223709795        0.5913139338
 C         -5.2932754024        4.1348213327       -0.4846754324
 C         -4.6148501890        4.5914545401       -1.7738243101
 C         -5.6357821352        4.9580615694       -2.8432608700
 C         -3.3280346415       -3.2538047610       -0.9088005207
 C         -2.5279832016       -4.3868912154       -0.9931280207
 C         -1.1912120720       -4.2915267091       -0.6768547796
 S          0.0867645089       -5.5590676658       -0.5508284732
 O         -0.2361156737       -6.4881553381        0.5042224269
 O          0.4138465610       -6.1314733435       -1.8339140598
 H          3.2743283141        6.4113759181       -2.0815626302
 H          4.8393236974        7.2250637544       -2.0758437626
 H          4.6908269073        5.6016137151       -2.7500339864
 H          4.3067219056        6.3504978968        0.1883802941
 H          5.7307381692        5.5521600054       -0.4775166853
 H          2.8963353311        4.4148085505       -0.5311677709
 H          4.3328000870        3.6146349106       -1.1706901981
 H          5.3323590861        3.5837788139        1.1162008959
 H          3.8914476448        4.3899449427        1.7543931089
 H          1.6205409756        4.1843765856        2.0687374862
 H         -0.5664495308        3.3514819701        2.8217489818
 H         -1.0598256876        0.9522989998        2.8499458994
 H          0.5937623623       -0.6885548652        2.0811940573
 H          6.7441427660        2.1937580282       -0.1925145457
 H          8.3669083451        0.6365165684       -1.1999761709
 H          7.8103925777       -1.7330459598       -1.4868788160
 H          5.6613342939       -2.6322831649       -0.7482968464
 H          4.5156177338       -3.5804826242        0.7721186862
 H          3.1151147325       -5.5466076984        0.2600044781
 H          1.2016380865       -1.0020692930       -0.0431418657
 H         -1.0520727925       -1.0562694832        0.2930841678
 H         -5.4804290574       -2.8820650996        0.5298042913
 H         -7.6449913736       -2.2758468935        1.4879342122
 H         -8.2573048322        0.0657998592        1.8749854596
 H         -6.6708551866        1.8799510302        1.3566289003
 H         -0.4719682231       -0.1018386575       -1.6265364628
 H          1.1239662460        1.7334481159       -1.9428199603
 H          0.5647136748        4.0219813047       -1.2669166755
 H         -1.6147435916        4.5508733542       -0.2725543816
 H         -4.8075425084        3.5065346255        1.5275152256
 H         -3.5779920709        4.5368647806        0.7737922830
 H         -5.9134369616        4.9425669102       -0.0907354733
 H         -5.9430843658        3.2843536612       -0.7016000396
 H         -3.9831238051        5.4578038855       -1.5639476222
 H         -3.9701005262        3.7929664503       -2.1467435562
 H         -5.1355718138        5.2816732118       -3.7525324615
 H         -6.2785008740        5.7652333044       -2.4984517353
 H         -6.2612355114        4.1008768731       -3.0824967409
 H         -4.3576821358       -3.3080267165       -1.2224807121
 H         -2.9441981549       -5.3284938310       -1.3151021584
