95
 energy: -146.366980103946 gnorm: 0.000067022615 xtb: 6.7.1 (edcfbbe)
C            3.08530963952290        5.89840855316642       -1.77895790608371
C            3.64648147403448        5.11998204331392       -0.59450257457215
C            5.01405408859732        4.52066197015301       -0.91592740798628
C            5.59357490317117        3.71544586276643        0.25430489519642
N            4.81326776064409        2.53991127633017        0.53430623844578
C            3.87862774235534        2.37872929830965        1.54153343036594
C            3.52481076088844        3.24754984421181        2.56212971695667
C            2.59045067453425        2.82074501471250        3.49151278080418
C            2.01167519462949        1.55635239320018        3.41447221907018
C            2.33958349542792        0.68130545424654        2.39516749547062
C            3.27491725937768        1.08718157080771        1.44911535573107
C            3.88483052370508        0.48378776517053        0.31783195412933
C            4.82245386668075        1.39656711941544       -0.20182506177814
C            5.49226469325446        0.75751049336487       -1.28063497422749
C            6.48597897191101        1.11732293449273       -2.18647185976135
C            6.88309187547087        0.19479176976744       -3.13619803956901
C            6.30075936171134       -1.06837847701762       -3.20469063774456
C            5.30665555911227       -1.45275425241631       -2.31904770911956
C            4.91137915296279       -0.54579042667050       -1.35105171116252
N            3.93831295237375       -0.68677893773895       -0.37349009694161
C            3.11886100615038       -1.80615218668857       -0.14198294399717
C            3.71225307223381       -3.06256943254050        0.11312875640299
C            2.89662515573834       -4.13777623947488        0.43450988839743
C            1.53591162650738       -3.96856370189760        0.46771897795616
C            0.91176185171448       -2.72444654244529        0.15922071282620
C            1.75130195737009       -1.63535728259420       -0.12613249668896
C           -0.50518067802860       -2.75579379820861        0.20692512288120
C           -1.41050563677776       -1.74176028915104       -0.14052615129292
C           -2.76899952739788       -1.95814566931773       -0.03044189482957
N           -3.66167031129719       -0.95051214712136       -0.41799076547459
C           -4.80193652058019       -1.13122458038937       -1.19853847663316
C           -5.28416471901465       -2.28892866434304       -1.78301001016537
C           -6.43757797063396       -2.20735157109209       -2.54941750760273
C           -7.09464993836397       -0.99590501812054       -2.74155885547803
C           -6.60704188215954        0.17475454869746       -2.19276046852676
C           -5.44682841981011        0.12282634691364       -1.42418000830301
C           -4.63111212878650        1.07595705544801       -0.75962606671901
C           -3.54965281865718        0.38441632606232       -0.16820707512037
C           -2.74474511168573        1.34555609961994        0.50434617131716
C           -1.58913781844534        1.30973434846294        1.28025325407547
C           -1.07760650316159        2.50066126652736        1.76436077486937
C           -1.69699548838844        3.71602321754070        1.49469565597332
C           -2.86021610980002        3.78014237576340        0.74256666692732
C           -3.38651454089010        2.59624124384836        0.25329583262476
N           -4.52204109774012        2.40554332447920       -0.51486058624232
C           -5.45165782242746        3.43556831800829       -0.89283637590924
C           -6.37865583130790        3.83132257107373        0.26420209402187
C           -7.31202703502575        2.69802944511000        0.68398641570605
C           -8.20653082970461        3.11473195456470        1.84599332964997
C           -3.27792193799467       -3.18715470340976        0.45877514342823
C           -2.39622278244427       -4.21064679621738        0.76729665766524
C           -1.04646461279247       -4.00719490773009        0.62862277290950
S            0.28205066486165       -5.14937951695442        0.88870090567401
O            0.38141034620863       -5.56589139875114        2.28456250125348
O            0.23429475553792       -6.26230429136898       -0.05492522534158
H            3.75199601183440        6.71374289112666       -2.05239280767944
H            2.96770662220923        5.24779598246746       -2.64317766942218
H            2.11286474965293        6.31808554518681       -1.53189308462177
H            2.95040689757016        4.32196396193306       -0.32673252781124
H            3.73586986905393        5.78816686372474        0.26499833582963
H            4.92770206564293        3.86752086357637       -1.78674048773396
H            5.71419394869120        5.32102868329908       -1.16184121772592
H            6.61252378883309        3.39845184903582        0.01205897602638
H            5.62768337149655        4.33303767239145        1.15344626148116
H            3.96386182191961        4.22905357336379        2.64715953738549
H            2.30735234103545        3.48223083667643        4.29672548429283
H            1.29749505585160        1.25302326793093        4.16600816111515
H            1.89211798189958       -0.29930738427837        2.33400304405831
H            6.93561006802638        2.09770289604444       -2.15274851172387
H            7.65514959362397        0.45798334294324       -3.84365021235954
H            6.62684159814911       -1.76202064727013       -3.96508452958755
H            4.84884572948463       -2.42815981365245       -2.38171709339877
H            4.78510525896410       -3.16311070550882        0.10152224533334
H            3.32012103822856       -5.10386897144711        0.66838648009409
H            1.33082976233987       -0.66291892791248       -0.33386176090450
H           -1.04741906254613       -0.80742627284832       -0.53957512318775
H           -4.76957753010661       -3.22947394145747       -1.66377025684357
H           -6.82791902044866       -3.10308558634468       -3.00834714744991
H           -7.99304211062378       -0.97103967577252       -3.33993800383122
H           -7.11631675629898        1.11009237375275       -2.36412297795152
H           -1.10607284147652        0.37143082198368        1.50387301435750
H           -0.17660199031929        2.48472235789910        2.35784461844010
H           -1.26699506365769        4.62700279341756        1.88275833375058
H           -3.33456332611540        4.72946839789649        0.54929627066754
H           -4.88371770064207        4.31048328961341       -1.22354961935205
H           -6.04113149218082        3.06639503817275       -1.73367137618798
H           -6.97074882740776        4.69191651571705       -0.05213017978935
H           -5.77314431539581        4.13333827658634        1.12073255436570
H           -7.93584462035861        2.40590291607599       -0.16331654355886
H           -6.72299974923665        1.82688452998712        0.97916398100521
H           -7.60705733175185        3.38722050486695        2.71229378607983
H           -8.86586441750140        2.29781237213577        2.13029046906168
H           -8.81965902228206        3.97043324302857        1.57046741174230
H           -4.33728230505703       -3.30927231161436        0.61037503205368
H           -2.75850143097235       -5.16653140042568        1.11754112869174
