95
 energy: -146.443054486740 gnorm: 0.000062835387 xtb: 6.7.1 (edcfbbe)
C            4.62233005634463        6.42021310947769       -1.49493101439693
C            4.98959588300527        5.69044152152907       -0.20781463028083
C            4.26789870534666        4.34992940082733       -0.09597828940847
C            4.62370427187204        3.61436658397234        1.20076727535312
N            3.92029025286723        2.36459185660036        1.31213792582469
C            2.66647121196162        2.17985710362136        1.84002901811320
C            1.82874272222296        3.10805145637402        2.44770161814201
C            0.61592251523924        2.67433145533872        2.93802388044086
C            0.23960768920553        1.33246835650455        2.85355094073552
C            1.05282723222248        0.39866897512375        2.25164668539002
C            2.26949183244089        0.81226582167170        1.70488007417666
C            3.33853408358585        0.19810189080198        1.00038495532772
C            4.31991310915811        1.16253922803218        0.79387828545826
C            5.41332506217806        0.55113380899746        0.12232613938842
C            6.63942598329582        0.99689238049037       -0.36346626095701
C            7.45453666805472        0.10716959605007       -1.03061383010660
C            7.05016434636521       -1.20865415047925       -1.24476641318848
C            5.83731088917742       -1.67691065665690       -0.77512934509932
C            5.02377738938601       -0.80886463280793       -0.06083656906803
N            3.76506482821113       -1.02219318531711        0.49000876249437
C            2.96435444659701       -2.14618799431627        0.34562075720500
C            3.47643081502739       -3.44520898501511        0.43301311654407
C            2.65878649327977       -4.54211518415357        0.19930325309155
C            1.32115160144258       -4.33624704418661       -0.05346000578551
C            0.77492706142202       -3.05428788769288       -0.05586492327792
C            1.60073333243551       -1.95731864078971        0.10421548055260
C           -0.66639385355543       -3.01415450523225       -0.27938859607493
C           -1.47702394885487       -1.90295975903271       -0.13934624540200
C           -2.84455552018347       -2.00521447088459       -0.40904745055352
N           -3.63343945360008       -0.87629252023261       -0.23792872344332
C           -4.88029261661860       -0.80960213692540        0.37484163854937
C           -5.69501605075379       -1.83123713213526        0.84158204489522
C           -6.89282747953681       -1.49658819691298        1.44508501209147
C           -7.28401891307819       -0.16849126577137        1.60016341882340
C           -6.46767369746983        0.86148706956002        1.18319190024708
C           -5.25282558381819        0.55216391771358        0.57777166142812
C           -4.16103858456034        1.31334722741837        0.07908225233673
C           -3.19758573773150        0.43323607606541       -0.40253965099939
C           -2.13002487507638        1.20762480519295       -0.92792214994224
C           -0.92847328593785        0.94481929050273       -1.58936501814110
C           -0.11214043370053        1.99794282107786       -1.93506474042136
C           -0.47200565711560        3.31608730783652       -1.64794494565436
C           -1.66713998361501        3.61266915360641       -1.02963994686530
C           -2.50901021055372        2.56430968035937       -0.67520136039289
N           -3.73924719093480        2.60728171771787       -0.06709206008640
C           -4.50091100681967        3.77533969343944        0.28829165412465
C           -5.59525126070628        4.08925886376014       -0.73889845449616
C           -5.02556383087857        4.51826648677106       -2.08921064036961
C           -6.13073359861762        4.80245359844381       -3.09973373843609
C           -3.37459943195632       -3.22832729537111       -0.83394621324536
C           -2.57146891281870       -4.35796184344352       -0.90571115150270
C           -1.23032576357997       -4.24307081875610       -0.61627718389169
S            0.03734188402223       -5.50732726543592       -0.49929138718762
O           -0.26288674632014       -6.42812650764959        0.57725032036812
O            0.32745587585132       -6.11369031871598       -1.78195148101833
H            3.55236314422842        6.61447387312753       -1.53194323179811
H            5.14618938199395        7.37136788200266       -1.55762979908111
H            4.89140925834809        5.82229648249672       -2.36327052615270
H            4.72831590660034        6.31498034965677        0.64980849151745
H            6.06915893614528        5.52531032205008       -0.18034329717976
H            3.18798274282089        4.51082225525875       -0.12342948289126
H            4.53169725797352        3.71741724036400       -0.94667555901073
H            5.69642927334891        3.40818965177640        1.23321787964322
H            4.37069034601607        4.23585210578882        2.06400525068012
H            2.11548772529608        4.14490401930738        2.53560156206719
H           -0.05258793816170        3.38110893778126        3.40745208392136
H           -0.70811726797689        1.02364318434324        3.27070324996678
H            0.75746227231573       -0.63945229559677        2.21923500914094
H            6.94357590460300        2.02380842690013       -0.23029252621964
H            8.41136837806481        0.43534046708712       -1.40921702031081
H            7.69442934841612       -1.87737853529570       -1.79647147575698
H            5.53349231830753       -2.68953497339596       -0.98694420618492
H            4.51154213053572       -3.59858607684520        0.69079232307278
H            3.05732577716359       -5.54434909450601        0.22560647188497
H            1.21178039466431       -0.95724900228861        0.01255624043049
H           -1.07319527123453       -0.96740514895913        0.20930454909400
H           -5.40312804630149       -2.86626362051899        0.76407514120721
H           -7.53700866189144       -2.28414173803798        1.80763904665428
H           -8.23188714564000        0.05305162836004        2.06822278430723
H           -6.76279092767450        1.88939309704380        1.32907337507473
H           -0.64875029699606       -0.06705316798341       -1.84247156561602
H            0.82254561240414        1.80460834307751       -2.44147194595141
H            0.19222343049309        4.11854826614355       -1.93317508040946
H           -1.94071530596062        4.63855699855799       -0.83643250297401
H           -4.95682745910324        3.59957721806611        1.26791110606095
H           -3.81704305234661        4.62199953265189        0.37579706684297
H           -6.22578355147944        4.88650324502484       -0.34000251452208
H           -6.21748433713721        3.20220823895192       -0.87520109344063
H           -4.41859217929413        5.41719870401654       -1.95747092056962
H           -4.37503094422705        3.73097171352993       -2.47650369724931
H           -5.70602125169414        5.11039775759832       -4.05262997816214
H           -6.78211885628130        5.59725074405146       -2.74139927525136
H           -6.73523833129684        3.91296352455413       -3.26557560161857
H           -4.41304961245502       -3.29541970567209       -1.11445802337096
H           -2.98436563440700       -5.31227742229003       -1.19331616693927
