95
 energy: -146.366639359079 gnorm: 0.000072070197 xtb: 6.7.1 (edcfbbe)
C            5.54770938029485        6.50316846881586       -0.34069375378434
C            5.95782735392709        5.49141969715516        0.72341659633675
C            5.05403440910607        4.26111242187935        0.70390722751737
C            5.47430809739964        3.23150788608407        1.75999796796178
N            4.61884155818216        2.07615768381263        1.73760157006699
C            3.46373311734112        1.89492938490456        2.47720110131579
C            2.91340355534438        2.71444202258053        3.44916365324982
C            1.75334393372336        2.29337934121658        4.08018812728322
C            1.15460172500204        1.07929998382031        3.75868509132716
C            1.68614975673971        0.25223033049282        2.78568340114703
C            2.84274312632624        0.65751008219294        2.12512507742796
C            3.66983774418267        0.11538622913476        1.10305396386802
C            4.74101096672919        1.01099939306847        0.90455519250649
C            5.59185614569467        0.45983691453471       -0.08919294060470
C            6.76221916699812        0.86469868885373       -0.72569135352594
C            7.29732490659226        0.05426243988977       -1.70884440795999
C            6.67566728593841       -1.13549423546971       -2.07691659122597
C            5.50799295141334       -1.56094427188837       -1.46148046179272
C            4.97639950635953       -0.77681273455010       -0.45259583094785
N            3.81652252654508       -0.97030171302136        0.29210162215235
C            2.91650600849001       -2.03660171831280        0.16459874482022
C            3.40317839108526       -3.36475672742093        0.10582741312863
C            2.50512817743000       -4.40713235969465       -0.06328495274580
C            1.16206305332958       -4.13844252717067       -0.14626151598396
C            0.64369756191380       -2.81380693119511       -0.04483619812555
C            1.56493252851330       -1.76618370633215        0.09858892794534
C           -0.76917395552105       -2.73328729778659       -0.14258186729713
C           -1.58444006851847       -1.59820785200113       -0.02416816968238
C           -2.95311464110166       -1.71171506765311       -0.15857728395236
N           -3.74557618572143       -0.56274709126258       -0.03539199894870
C           -4.91075661815247       -0.43976292536294        0.71550870859988
C           -5.54626414022944       -1.38326106127864        1.50390264423805
C           -6.69823714844234       -1.00625529648174        2.17758593050656
C           -7.20442069176228        0.28696210515726        2.08145949772551
C           -6.56415639986110        1.24979103256917        1.32457372970887
C           -5.40300481297110        0.89890953315085        0.64103140519439
C           -4.46982515837790        1.58419330895470       -0.18076474055917
C           -3.47502754277948        0.66308049516746       -0.56704679614147
C           -2.56301560338407        1.35024122097595       -1.41461410749518
C           -1.42231049432646        1.00129209332288       -2.13249025019628
C           -0.77801675035689        1.97837861245009       -2.86918548492563
C           -1.25233560779577        3.28599912938399       -2.90255071313265
C           -2.39498883792137        3.65671208324684       -2.21171399663208
C           -3.05673854724139        2.69002927203915       -1.47154647160239
N           -4.20661592402490        2.80644628867549       -0.71110221797975
C           -5.03633376452589        3.97219992558663       -0.56254757776091
C           -6.28029869480585        3.91024995239918       -1.45792316462182
C           -5.94052181807931        4.00173661643521       -2.94390822919115
C           -7.19308604249353        3.91191216567903       -3.80800878592494
C           -3.56345671854413       -2.96086384178003       -0.42535355788929
C           -2.77171197928082       -4.09534128750253       -0.51364269129979
C           -1.41184535630052       -3.98631300995236       -0.36679868715592
S           -0.18308197871253       -5.26292687472823       -0.40480930332003
O           -0.33776488754939       -6.19772667205861        0.70580637713411
O           -0.10555741091522       -5.90966027306715       -1.71132895724356
H            4.52373145248977        6.83372985246977       -0.17992522128736
H            6.19832486686726        7.37411617669773       -0.30899042159024
H            5.61300646691940        6.06228851279453       -1.33323594091794
H            5.90979028002436        5.96177042853116        1.70810129277342
H            6.99233464251761        5.18563065530602        0.55238121871268
H            4.02077510658889        4.56174591703947        0.89048278154002
H            5.09193755722448        3.79277888168212       -0.28203972991069
H            6.49962767390871        2.90281871901427        1.57188887238085
H            5.43411783160901        3.67848175229943        2.75586381172292
H            3.36748038198118        3.65576204661463        3.71661135925706
H            1.30847559644649        2.91879634947093        4.83956685817662
H            0.25716501035008        0.77719992489803        4.27768752580529
H            1.22018577473544       -0.69165099778229        2.54740476312393
H            7.23924463833344        1.79658414630907       -0.46491819184636
H            8.20600076455134        0.35220542303485       -2.21011373303131
H            7.10565341722153       -1.73856511209219       -2.86236309907313
H            5.02203491597228       -2.47210487790749       -1.77335618669289
H            4.45642753616982       -3.55860160693085        0.22129134180509
H            2.84933280082185       -5.42947024256601       -0.12562899950872
H            1.22282571485548       -0.74306269894950        0.12223656914174
H           -1.14725847414727       -0.63834764899472        0.20352336284524
H           -5.15092657486499       -2.38194874367295        1.60490967864780
H           -7.20903100162750       -1.73212330411380        2.79220559681906
H           -8.10695544201002        0.54188203159250        2.61650647047873
H           -6.95587747569902        2.25355824234605        1.26861826136467
H           -1.05598407109109       -0.01378918880658       -2.11979872552636
H            0.10862978580654        1.72111980286208       -3.42934601653339
H           -0.72384783971487        4.02632260282131       -3.48410077692674
H           -2.75421614264682        4.67235075479771       -2.26310600585316
H           -5.34331732114988        4.03833668454174        0.48567268902155
H           -4.44340168160914        4.85538779346471       -0.80647755528688
H           -6.94137636497386        4.73476372565761       -1.18517908835478
H           -6.80936822608977        2.97478547987639       -1.26523028995073
H           -5.43350025756829        4.94854948401103       -3.14343412927982
H           -5.25790272490740        3.19321927152841       -3.21472559181053
H           -6.93484853744236        3.98530125556357       -4.86198732571640
H           -7.88367520258434        4.71760130221583       -3.56702724159773
H           -7.70251418259316        2.96411382730282       -3.64610752799019
H           -4.62679711492000       -3.01778884364533       -0.58747861492877
H           -3.21186120512364       -5.06375683295050       -0.70316564828177
