95
 energy: -146.442895373412 gnorm: 0.000054135220 xtb: 6.7.1 (edcfbbe)
C           10.69334342965605        2.35270499685081        1.48567278064704
C            9.68614542769992        2.72345368839293        0.40192253808094
C            8.69677413073947        1.60145840083031        0.08722672817752
C            7.72617592518901        1.31969268155142        1.24028859166619
N            6.75924102613162        0.31583972288392        0.88342371887572
C            6.87208343186305       -1.03878389290471        1.07671437370955
C            7.88200876151681       -1.75381600807636        1.71059671280740
C            7.74674377476310       -3.12153602230660        1.81999785797024
C            6.62403036367847       -3.78323401508742        1.31743057261516
C            5.61649817207393       -3.09563862838463        0.67857199821740
C            5.73203946885550       -1.71249253656970        0.53436099769695
C            4.94636423600144       -0.68029772973896       -0.03710180745406
C            5.59207833156178        0.53001325470168        0.19989816556247
C            4.77977166224231        1.57705937059816       -0.31351771807816
C            4.89826245715477        2.96130206036067       -0.40993821008518
C            3.89443160910063        3.67317706552005       -1.03178326726902
C            2.79005947380267        3.02478076957762       -1.58217095517645
C            2.64903377566915        1.65236019702498       -1.50635248852686
C            3.62993088917500        0.92425276221275       -0.84795043901200
N            3.73424219669942       -0.44765464996733       -0.66677148560026
C            2.83713105532737       -1.41256137507257       -1.10635153416538
C            3.31594930350033       -2.56765514605008       -1.73263165845158
C            2.43591308784921       -3.53775027705401       -2.18306937270037
C            1.08490649775577       -3.33398792152271       -2.01525765861166
C            0.58146835972037       -2.19180958849684       -1.39388110012695
C            1.46343205170270       -1.23057419345853       -0.92557625145447
C           -0.87982558140063       -2.14330441106404       -1.32702263458597
C           -1.64959664204304       -1.12939834040482       -0.77853368507676
C           -3.04309154764909       -1.21846712901481       -0.83418905601330
N           -3.83234824123815       -0.20223786205873       -0.31161490490073
C           -3.65736469866279        1.16258026504188       -0.49389303902875
C           -2.68625561793691        1.83643209620064       -1.22101110854635
C           -2.74454951796680        3.21597740600125       -1.27362795760289
C           -3.75814825385463        3.92537559191685       -0.63155291142028
C           -4.75418971473182        3.26998882905388        0.06104836765471
C           -4.71838753955761        1.87968048373303        0.13377256131194
C           -5.55166610814485        0.87974223030590        0.70445996012504
C           -5.00145011951518       -0.36526417795571        0.41421646167538
C           -5.79682889937253       -1.35092316486524        1.05068744570241
C           -5.74815726105270       -2.73883376597380        1.18730949135871
C           -6.73430841921206       -3.37036897098416        1.91132920294829
C           -7.76943512335054       -2.64664086215521        2.50763667460145
C           -7.83579505349573       -1.27346862921084        2.40663114938090
C           -6.84697284872788       -0.61361063920079        1.68511220892692
N           -6.67414584843226        0.73236785300499        1.47555110773911
C           -7.52935950121362        1.80579978796596        1.90783718371695
C           -8.42847675215920        2.31960937834277        0.77678961677807
C           -9.45807959924805        1.28326212812862        0.33210746305859
C          -10.32199340066426        1.80411955613010       -0.81059685080338
C           -3.65206441749850       -2.33400380702571       -1.41797764295130
C           -2.88333345000014       -3.35769575927489       -1.94646711748634
C           -1.51207457350259       -3.24566874046432       -1.90082290143663
S           -0.27512172240363       -4.38522090147033       -2.51237285903833
O           -0.28500919091953       -5.62420246724466       -1.76372375610440
O           -0.34205342029436       -4.51874528542341       -3.95225479163947
H           11.22199757500415        1.43994390839595        1.21827355642348
H           11.42587441384983        3.14826040333311        1.60390707998128
H           10.20406065886196        2.20205083371804        2.44465654390194
H           10.22924062784276        2.96807007429884       -0.51384964493961
H            9.13653088746534        3.61679696979045        0.70739564520808
H            8.11142907480495        1.87592524282458       -0.79385180760375
H            9.24336837827945        0.68578429313826       -0.14954609835136
H            8.26986573477634        0.97396641662280        2.12118476651108
H            7.18847945896176        2.23461286394572        1.50432505830879
H            8.75319537562886       -1.25765293099899        2.11071941810582
H            8.52109298281653       -3.69518112323901        2.30843908633451
H            6.54786344136752       -4.85459206425350        1.43531849229941
H            4.74653577876051       -3.61653545815406        0.30701244486975
H            5.76577566823611        3.46752775469151       -0.01504445703711
H            3.96950065428119        4.74779689096470       -1.11086282077790
H            2.03189254178559        3.60655088066885       -2.08531930767613
H            1.80564599501479        1.16429776530907       -1.96963390984851
H            4.37808002187680       -2.68756939673740       -1.87641810367335
H            2.79181274932531       -4.43172382958129       -2.67073157215149
H            1.10531234280518       -0.35638589251511       -0.40698092183773
H           -1.18787838169516       -0.28614724371649       -0.29167264604480
H           -1.91377923911552        1.30305839293319       -1.75276416196894
H           -1.99218610733599        3.75532005850137       -1.82996382009040
H           -3.76916487118547        5.00367415632933       -0.69320344769341
H           -5.55166497418988        3.82456949817202        0.53177116878968
H           -4.94410064326945       -3.30672858198737        0.74319180545333
H           -6.70892146797109       -4.44454784571076        2.02490798267001
H           -8.52920296021816       -3.17571204489323        3.06442389318352
H           -8.63885246274314       -0.73089747324778        2.88154703674724
H           -8.14145992816293        1.44992384190266        2.73893976997089
H           -6.89544101713519        2.62076211505105        2.27192087802919
H           -7.80288846637570        2.59516509954321       -0.07488577611516
H           -8.94242396193229        3.21826124491137        1.12377517574198
H           -8.94439728312535        0.37420324113208        0.01140142134662
H          -10.09853283073056        1.02238546537409        1.17801690743793
H           -9.70650048337394        2.04979780068459       -1.67369362842032
H          -10.85933233910066        2.70037208323787       -0.50677637061188
H          -11.04938364100805        1.05333620500600       -1.11127415961302
H           -4.72839927265345       -2.38138844077538       -1.46653192832162
H           -3.34101986562658       -4.22253785249549       -2.40070531618807
