42
 energy: -63.851937462848 gnorm: 0.000029025695 xtb: 6.7.1 (edcfbbe)
C            4.94260090269034        0.79931742909369       -0.60691782242117
C            4.84640074618230       -0.04170577595306        0.48821973431768
C            3.65987770082368       -0.70036010989616        0.75685588579029
C            2.54726935785044       -0.51097333964764       -0.05785546015542
C            1.30035676455853       -1.26355014405216        0.17159043021926
C            1.42497770458009       -2.66350583310106        0.22563752831588
C            0.32952323126140       -3.47295507200885        0.30249611866205
C           -0.96541125376282       -2.92227203429445        0.23076062036773
C           -2.10716353466929       -3.74544621374409        0.21701901769409
C           -3.35410125369252       -3.19351179199139        0.10762808963753
C           -3.50114826444223       -1.81363476021545       -0.03189689165545
C           -2.40932528517214       -0.96334409855759       -0.03053447697169
C           -2.54762208630210        0.47415400700695       -0.22404223575404
C           -3.72750456363336        1.06140664734948       -0.64531237533890
C           -3.86027957501599        2.44794006470152       -0.72924979226810
C           -2.83068781761314        3.26574856368721       -0.35139582650372
C           -1.60352868811907        2.71655982690649        0.06974246069292
C           -0.54526658383362        3.53789522680726        0.50641644660236
C            0.61437379016251        2.97722385937796        0.96725371309042
C            0.80263141711998        1.59567640740613        0.91305970873157
C           -0.17052803005854        0.75507484530177        0.40202397992087
C            0.03690891019671       -0.67831261359635        0.23600231649645
C           -1.11190275120688       -1.51260823483890        0.15634572625090
C           -1.43725798844962        1.30674512929582        0.07262019591607
C            2.65690995811755        0.32924789222846       -1.16464830439100
C            3.84533797981623        0.97907214731507       -1.43433198266945
H            5.87011775504803        1.31093485548839       -0.81761361644007
H            5.69943245999097       -0.18795615539785        1.13509756645720
H            3.58383626839431       -1.34988611764565        1.61773062596226
H            2.41746119053334       -3.09041136105915        0.19771234597948
H            0.43854549164440       -4.54518147268965        0.37799883141653
H           -1.97820327217629       -4.81560143678777        0.29051765192025
H           -4.23305088829395       -3.82166330460569        0.11092748894248
H           -4.49854855969524       -1.41677496059604       -0.13629180699355
H           -4.57379192751937        0.45162561031843       -0.91988849759018
H           -4.79482205389937        2.86880940479634       -1.07111362503222
H           -2.94211652740269        4.34031033216111       -0.36748689104103
H           -0.67942636121283        4.60992932776208        0.49799114746249
H            1.40565902235030        3.59953712323143        1.35913077901124
H            1.72895845151002        1.18948993331526        1.28426685281195
H            1.80163772865762        0.46634588592739       -1.81059120792105
H            3.91887243467090        1.62660731119324       -2.29587344952323
