  42
        -63.79257714
 C          4.9764947045        0.7990423447        0.7700822049
 C          4.9934853039       -0.1961215106       -0.1954082101
 C          3.8357382078       -0.8762119568       -0.5156607863
 C          2.6266605912       -0.5626525029        0.1122028779
 C          1.4040253952       -1.2990667351       -0.1830437664
 C          1.4641074606       -2.6839517510       -0.2783736189
 C          0.3225608264       -3.4549315933       -0.2847524689
 C         -0.9490491122       -2.8627933567       -0.1224732464
 C         -2.1065873271       -3.6419528874       -0.0207698687
 C         -3.3486872235       -3.0401671265        0.1390583355
 C         -3.4571132360       -1.6734050082        0.2106867142
 C         -2.3169512775       -0.8384142101        0.1185160953
 C         -2.4025046713        0.5834245949        0.2072930968
 C         -3.5821542945        1.2553788207        0.6112420161
 C         -3.6575199399        2.6282264264        0.6034707765
 C         -2.5813109432        3.3921892217        0.1779329804
 C         -1.3816897998        2.7769300244       -0.2159318907
 C         -0.2870806932        3.5344802139       -0.6720583250
 C          0.8682734328        2.9056754057       -1.1112821696
 C          1.0000716968        1.5411315789       -1.0200421617
 C         -0.0326146047        0.7398407417       -0.4603141594
 C          0.1187063707       -0.6532001994       -0.2285675171
 C         -1.0481429560       -1.4439504563       -0.0721652571
 C         -1.2744029405        1.3584127842       -0.1570228908
 C          2.6256322131        0.4406410639        1.0902956514
 C          3.7887017785        1.1089866641        1.4136556554
 H          5.8845679641        1.3267484877        1.0210018165
 H          5.9162479651       -0.4401347570       -0.7021381091
 H          3.8533024355       -1.6339819383       -1.2858642574
 H          2.4303057771       -3.1680197614       -0.2759845615
 H          0.3921991246       -4.5312281624       -0.3390596423
 H         -2.0247226285       -4.7170975626       -0.0809873726
 H         -4.2353061773       -3.6543636580        0.2033704956
 H         -4.4346582875       -1.2314060838        0.3143323090
 H         -4.4329345602        0.6866890689        0.9495921687
 H         -4.5660132651        3.1171730299        0.9248259070
 H         -2.6498490226        4.4697064902        0.1567416977
 H         -0.3788080853        4.6092570059       -0.7215983447
 H          1.6701253029        3.4929656581       -1.5349239793
 H          1.8786827836        1.0644229421       -1.4219180507
 H          1.7082941280        0.6695458144        1.6122386670
 H          3.7711108794        1.8756081084        2.1745317619
