42
 energy: -63.796904598804 gnorm: 0.000082400070 xtb: 6.7.1 (edcfbbe)
C            4.98341546710952        0.79634770696107        0.76084708236782
C            4.99191013865566       -0.18927545307988       -0.21392240754957
C            3.83131369751337       -0.86827420976141       -0.52823090081746
C            2.62985668270394       -0.56246593806699        0.11588456733223
C            1.40375861587030       -1.29916369678177       -0.17492689447138
C            1.46416419686248       -2.68272695664547       -0.26514352301327
C            0.32161218197090       -3.45476206590560       -0.27503748752208
C           -0.94973277954652       -2.86195841795849       -0.11725247902759
C           -2.10773126396324       -3.64138226037387       -0.01905484102045
C           -3.35075173918163       -3.03954782203907        0.13679388084475
C           -3.45932446362008       -1.67348259022973        0.20798432102623
C           -2.31816163792423       -0.83755361712918        0.11833395291357
C           -2.40535668117524        0.58323076455931        0.20316307807435
C           -3.58904979047298        1.25542286481672        0.59903646587675
C           -3.66608409958314        2.62719912399194        0.58752755369861
C           -2.58733005952742        3.39187426618428        0.16690173651683
C           -1.38462173307337        2.77722831221741       -0.21726804287943
C           -0.28787916421578        3.53595936517476       -0.66678473155074
C            0.87114225060354        2.90738294861603       -1.09934642307114
C            1.00348208994844        1.54390282893716       -1.00691451342871
C           -0.03221720159115        0.74046436549240       -0.45227902649661
C            0.11850304091603       -0.65149181010048       -0.22224190671415
C           -1.04890516599452       -1.44285860467179       -0.06773088016576
C           -1.27607138795854        1.35867388456414       -0.15605667541606
C            2.63712351004345        0.42931415712600        1.10398467740245
C            3.80249726982254        1.09723717032964        1.42102102856535
H            5.89288067381614        1.32444464911104        1.00595878752208
H            5.90925248700474       -0.42660254952266       -0.73326058938343
H            3.84140146979688       -1.61949363080560       -1.30498731817387
H            2.43039979608358       -3.16683664918404       -0.25932270601457
H            0.39159388402609       -4.53102203771651       -0.32984771001518
H           -2.02547432028841       -4.71657880177060       -0.07831432561822
H           -4.23735379173324       -3.65404739476473        0.19845001588362
H           -4.43707463902083       -1.23130551327412        0.30863879598458
H           -4.44081989291991        0.68632536720006        0.93419351363613
H           -4.57706692422049        3.11627593725479        0.90158028150655
H           -2.65755129916216        4.46924089437764        0.14202309523515
H           -0.37988980194922        4.61073540946619       -0.71668016928911
H            1.67454601196609        3.49546122880888       -1.51893666456845
H            1.88488485641327        1.06783313891460       -1.40316898487210
H            1.72406659764443        0.65312213938889        1.63574936435674
H            3.79184867884400        1.85655741889553        2.18934918696795
