42
 energy: -63.796904234457 gnorm: 0.000022648772 xtb: 6.7.1 (edcfbbe)
C            4.98736418591050        0.85037270210373        0.70369958005738
C            4.99351587986406       -0.12306017730018       -0.28325444290784
C            3.83697234673141       -0.81314406683555       -0.58812824787338
C            2.64175938072274       -0.53079387449162        0.07793363890988
C            1.42124730424896       -1.27992414301405       -0.20507994779815
C            1.49967798065722       -2.66148238734628       -0.31086822737745
C            0.36789512830848       -3.44915629024901       -0.31887108697502
C           -0.91000163488592       -2.87563602366552       -0.14435964173739
C           -2.05632341096683       -3.67231237236306       -0.04698143106198
C           -3.30627562404533       -3.08983301428424        0.12559617025595
C           -3.43297722657788       -1.72638544096211        0.21460654093372
C           -2.30419781259078       -0.87357240959326        0.12658670099320
C           -2.41053026839335        0.54460610352490        0.23034816330238
C           -3.60091842341178        1.19493118668406        0.64251903676827
C           -3.69687897270161        2.56550830618793        0.65069692216927
C           -2.63110526599671        3.35078055062069        0.23496813032545
C           -1.42276387966304        2.75811994712626       -0.16569364126308
C           -0.33953691767379        3.53835817632754       -0.61116227830064
C            0.82400526052219        2.93198473834870       -1.06276933276728
C            0.97481923833883        1.56907247146466       -0.99292772996733
C           -0.04488028758620        0.74353126131035       -0.44100711954297
C            0.12699566697881       -0.64931506956195       -0.23148319594803
C           -1.02811598119291       -1.45870365763665       -0.07694372578944
C           -1.29456399439775        1.34041648781292       -0.12598852898129
C            2.65146379930113        0.44865452265385        1.07813895301691
C            3.81302410773136        1.12771846419545        1.38556620211806
H            5.89364141722169        1.38729020678228        0.94133261612875
H            5.90564258692178       -0.34202916147628       -0.81956237742868
H            3.84444770711405       -1.55456426416040       -1.37428074369242
H            2.47257600937836       -3.13201806458232       -0.31949385356101
H            0.45214289248457       -4.52369908046586       -0.38598246563973
H           -1.95952738075317       -4.74543650943100       -0.12017476820750
H           -4.18386814050174       -3.71721787213464        0.18632735424534
H           -4.41595614523121       -1.29928181013788        0.32843375329730
H           -4.44296197355774        0.60970646828982        0.97442233190502
H           -4.61270700948837        3.03745959906834        0.97663355433407
H           -2.71597560290583        4.42734288939851        0.22611938486318
H           -0.44610078842974        4.61246577739816       -0.64341990549632
H            1.61615668970053        3.53698268051272       -1.47967664135432
H            1.85849071972911        1.11104091709810       -1.40496794270197
H            1.74377516947426        0.65427228572513        1.62619792780720
H            3.80459785403651        1.87747205404281        2.16326060436998
