  90
       -137.99343013
 C         -9.7797002570       -5.8643451764       -0.7381035477
 C         -8.6362212364       -5.9544729421       -1.5138122963
 C         -7.6313762839       -5.0142377365       -1.3835964139
 C         -7.7538142052       -3.9638770369       -0.4766496317
 C         -6.6879357635       -2.9596246780       -0.3424938904
 C         -5.3441263844       -3.3579827386       -0.3460940778
 C         -4.3097906130       -2.4522044385       -0.2308921739
 C         -4.6310734353       -1.1065257730       -0.1246334490
 C         -5.9804557872       -0.6865375792       -0.0927820260
 C         -7.0039347464       -1.6143401636       -0.2029624293
 C         -5.9594922134        0.7403816778        0.0765421005
 C         -6.9542222101        1.7012461901        0.1654713092
 C         -6.5973380971        3.0364270608        0.3041175408
 C         -7.6331020805        4.0752840724        0.4079459393
 C         -8.7671287455        3.8677006281        1.1901143326
 C         -9.7415506053        4.8426605827        1.2922844161
 C         -9.6024661365        6.0405959389        0.6116117787
 C         -8.4809284270        6.2571317025       -0.1711820029
 C         -7.5035635602        5.2846142411       -0.2710584398
 C         -5.2419445536        3.3907221430        0.3373767709
 C         -4.2357341491        2.4500816969        0.2579167616
 C         -4.5984011244        1.1155745083        0.1442114725
 N         -3.8062785418       -0.0089166263        0.0208047182
 C         -2.4068078160       -0.0252280485        0.0378021940
 C         -1.6957781758       -0.6975384325       -0.9528744507
 C         -0.3158219454       -0.6996941897       -0.9353357809
 C          0.3887496546       -0.0178891646        0.0551958879
 C          1.8564888839        0.0091041261        0.0520914624
 C          2.5965686083       -1.1354086882       -0.2415723307
 C          3.9748439220       -1.1003728645       -0.2423642635
 C          4.6555056519        0.0852923556        0.0293576025
 C          6.1224921857        0.0949568717        0.0038703254
 C          6.8583588422        1.2348451353       -0.3182950009
 C          8.2476461943        1.1169826545       -0.3178463190
 C          9.1381993887        2.2377754510       -0.6467189995
 C         10.4222667854        2.2642968502       -0.1057845371
 C         11.2810206022        3.3074945221       -0.3921831480
 C         10.8729368414        4.3331015281       -1.2298305710
 C          9.6033044428        4.3074748011       -1.7827232622
 C          8.7381537295        3.2685881756       -1.4934475107
 N          8.8345881475       -0.0332569013        0.0023678415
 C          8.0581608580       -1.0722768268        0.2880852604
 C          8.7182522736       -2.3353889823        0.6310127154
 C          7.9670251126       -3.4233142874        1.0705528842
 C          8.5927700766       -4.6110666035        1.3963543485
 C          9.9697958244       -4.7251105105        1.2872056475
 C         10.7219130342       -3.6460404278        0.8500611140
 C         10.1020591307       -2.4556158814        0.5228745349
 N          6.7301005065       -1.0540628562        0.2883505568
 C          3.9192414754        1.2296185568        0.3266623189
 C          2.5404187316        1.1880212801        0.3443179069
 C         -0.3319811175        0.6491829857        1.0444700433
 C         -1.7113363956        0.6395534828        1.0447793268
 C         -8.9093618442       -3.8829053848        0.2971937231
 C         -9.9119607933       -4.8256930224        0.1682260108
 H        -10.5643433630       -6.5995813897       -0.8400503278
 H         -8.5292209793       -6.7596023098       -2.2265112312
 H         -6.7496921779       -5.0806768824       -2.0046905177
 H         -5.1141968721       -4.4109983167       -0.4155430159
 H         -3.2835242142       -2.7867834847       -0.2096845233
 H         -8.0338023113       -1.2905714060       -0.2011225539
 H         -7.9936007779        1.4165257740        0.1006457519
 H         -8.8727586661        2.9416024233        1.7366715400
 H        -10.6126242219        4.6692212217        1.9077751607
 H        -10.3646383863        6.8017957603        0.6908165507
 H         -8.3689771536        7.1879506030       -0.7085372632
 H         -6.6395022769        5.4536217000       -0.8974444031
 H         -4.9788562219        4.4324252372        0.4473766311
 H         -3.1987908896        2.7500021209        0.2750681126
 H         -2.2315475269       -1.1982014765       -1.7454753997
 H          0.2257346529       -1.2076150105       -1.7197213307
 H          2.0825307789       -2.0628847517       -0.4474452477
 H          4.5508345764       -1.9867270774       -0.4588848467
 H          6.3733533589        2.1654210155       -0.5604661447
 H         10.7247770055        1.4569883248        0.5431025327
 H         12.2723444155        3.3223873944        0.0364673990
 H         11.5440938428        5.1486056103       -1.4558973697
 H          9.2869465946        5.0998067305       -2.4456031349
 H          7.7587231434        3.2487932973       -1.9485417892
 H          6.8968385690       -3.3154259977        1.1536047841
 H          8.0078609579       -5.4525853057        1.7385783971
 H         10.4568767338       -5.6550244668        1.5428031433
 H         11.7951281275       -3.7366178915        0.7640240298
 H         10.6712200833       -1.6069062522        0.1770033858
 H          4.4251274811        2.1527906661        0.5684136995
 H          1.9816527155        2.0854625991        0.5662989670
 H          0.1968819604        1.1566560648        1.8376875944
 H         -2.2599562873        1.1347246591        1.8319931511
 H         -9.0111390085       -3.0852567066        1.0189087616
 H        -10.8001541111       -4.7521269105        0.7792444192
