90
 energy: -137.993414993060 gnorm: 0.000055120618 xtb: 6.7.1 (edcfbbe)
C           -9.42181348114752       -5.99349917864826       -1.00609346092574
C           -8.28488792333798       -5.99332452838937       -1.79661813365180
C           -7.32185143716885       -5.01589669958417       -1.62979731690120
C           -7.48058596907785       -4.01782885961314       -0.67087110650703
C           -6.45783216943385       -2.97563519627607       -0.49671339083219
C           -5.09868777804321       -3.31618489488684       -0.53073728927446
C           -4.10198910373084       -2.37399033686144       -0.38232815855719
C           -4.47769262191708       -1.04919319974730       -0.21104604579794
C           -5.84283820918073       -0.68925883776533       -0.14401747890537
C           -6.82807877203051       -1.65327439213722       -0.28861959150377
C           -5.87921083627954        0.72745317302525        0.09442950423968
C           -6.91279815246597        1.63812104081248        0.24535743700140
C           -6.61162375405113        2.97904987618145        0.44652440678983
C           -7.68933383101583        3.96451984736031        0.62046003726802
C           -8.79940922241019        3.66676189765132        1.40786931350293
C           -9.81250052896422        4.59166619605367        1.57742604146687
C           -9.73681134421971        5.82884020568667        0.95993768579730
C           -8.63990049460023        6.13482639477974        0.17207074782139
C           -7.62395799142527        5.21241033432129        0.00493804915484
C           -5.27226593703421        3.39001825200846        0.47766101578570
C           -4.22781337845861        2.49941373456408        0.33698462356952
C           -4.53421875593251        1.15736900723928        0.16256860886461
N           -3.69733326865685        0.07504325281645       -0.02498988618974
C           -2.29812898208968        0.10640310000578       -0.02439224175738
C           -1.58167745523673       -0.51262678677980       -1.04579837118312
C           -0.20216277887153       -0.50020435975003       -1.03137037055060
C            0.49719267796369        0.14756574813711       -0.01467643401337
C            1.96522478208136        0.15657497045763       -0.00338425523891
C            2.68418051407849       -0.99863941621931       -0.30806874992380
C            4.06229778141903       -0.99585254759522       -0.28415712167811
C            4.76469716611174        0.16835554946645        0.02255663786786
C            6.23162064854795        0.13935720335457        0.03155329850002
C            7.00676032205065        1.25985856327306       -0.26540881579898
C            8.39195328173082        1.10152215132248       -0.23488150722464
C            9.32194192073860        2.19442465588612       -0.54803487461957
C           10.58775788801509        1.88559352911570       -1.04285523736602
C           11.48150399513036        2.89057417746484       -1.35702853492773
C           11.12722180596064        4.21750871737461       -1.17330202967558
C            9.87657024863831        4.53319885060130       -0.66868785101373
C            8.97690107913670        3.53031056388758       -0.35852700731123
N            8.93785477101440       -0.07491882428539        0.06283801824520
C            8.12582694015304       -1.09146938264021        0.32930079258582
C            8.73949190515502       -2.38159261307618        0.65829719507978
C            7.93984234107217       -3.48774525161387        0.93836806685395
C            8.52024503168260       -4.70212893464813        1.24935793077757
C            9.90035643254678       -4.82510362894595        1.28513330733959
C           10.70078097709034       -3.72742511505520        1.01023671229072
C           10.12618460224068       -2.51047031894118        0.69825667704902
N            6.79914158186807       -1.02864364307765        0.32068841126990
C            4.04963092692112        1.32441819601134        0.32589896790771
C            2.66962108965692        1.31445185671980        0.32092326702220
C           -0.22811572357739        0.77906232848353        0.99390869015455
C           -1.60768721798950        0.75118192842445        0.99880238703037
C           -8.62957935158090       -4.02702580091372        0.11674374637249
C           -9.58998809995920       -5.00731591530978       -0.04861176101470
H          -10.17315449525772       -6.75854307793980       -1.13566804979126
H           -8.14970339178644       -6.75758358178812       -2.54851520368675
H           -6.44554869582908       -5.01166103541781       -2.26197649711701
H           -4.82564231481007       -4.35406334506779       -0.65221061412033
H           -3.06279292211903       -2.66648261850176       -0.38531572665958
H           -7.87049120887875       -1.37401454696684       -0.25944264925754
H           -7.93976222772088        1.31139931152644        0.18084893814195
H           -8.85582598507126        2.70950298722685        1.90591313054094
H          -10.66415031002067        4.34817273553754        2.19637375518196
H          -10.52902229201374        6.55105903937321        1.09188976497956
H           -8.57749087408262        7.09668619504733       -0.31644133678231
H           -6.77956302588953        5.45148095968799       -0.62543775912812
H           -5.05236592351899        4.43547262603002        0.63630082797906
H           -3.20478118246933        2.84376780538008        0.35400674740005
H           -2.11386995744754       -0.98851308376051       -1.85580336611367
H            0.34354936729413       -0.97296110361750       -1.83465374877931
H            2.15223300807480       -1.90972574079163       -0.54033907232867
H            4.62119367660367       -1.89155429240916       -0.50692630867443
H            6.55289148658002        2.19346412943195       -0.55278169510551
H           10.84810003129526        0.84748648943258       -1.17966987921992
H           12.45790292896170        2.64117883565736       -1.74595949234754
H           11.82535794469418        5.00440380567426       -1.41825934227033
H            9.60194299070707        5.56660087088858       -0.51414526226963
H            8.01281231765540        3.78941761778750        0.05383781307615
H            6.86756851064859       -3.37318294970518        0.91077596268096
H            7.89715824011405       -5.55772672679862        1.46639066329526
H           10.35205180404818       -5.77577845196130        1.52909628543475
H           11.77646209817205       -3.82372011231122        1.04118845156022
H           10.73424224030403       -1.64503513640312        0.48628275562642
H            4.57306804920696        2.23119539814411        0.59175425374593
H            2.12692891845135        2.21955604147902        0.55250842598881
H            0.29745299720104        1.26703900115331        1.80150140612775
H           -2.15886782900646        1.21113077015004        1.80531138991176
H           -8.75870557586534       -3.27073620757129        0.87752580950510
H          -10.47320153933523       -5.00433424841152        0.57396706721697
