90
 energy: -137.918896496526 gnorm: 0.000112282806 xtb: 6.7.1 (edcfbbe)
C           -9.68166694842709       -5.94001239257149       -0.26669459092487
C           -8.52586720736200       -6.07519646642348       -1.01762937199300
C           -7.53774173173326       -5.11096104793420       -0.95346832481089
C           -7.69059514052839       -3.98982557920350       -0.13988150846845
C           -6.64457271197709       -2.95983545040446       -0.07726088249125
C           -5.29304347304981       -3.33111327845543       -0.04094220619031
C           -4.27716498731396       -2.39932356041270        0.00966608181927
C           -4.62500603944283       -1.05475513739702        0.00699231598715
C           -5.98378101306676       -0.66007119606314       -0.00206393032551
C           -6.98766631392059       -1.61183239728527       -0.04486089154830
C           -5.98887151276716        0.77731856015778        0.05299089291382
C           -6.99889688303322        1.72350479344439        0.06413400888425
C           -6.66416264048610        3.07363833748301        0.09671280614542
C           -7.71774109298009        4.09778866373839        0.11832646644004
C           -8.85451454065627        3.92625011535714        0.90613287845115
C           -9.84493009880030        4.88977591062536        0.93385998289666
C           -9.72070604010043        6.03872363346849        0.17061842896532
C           -8.59764947542263        6.21817270722125       -0.61971520608878
C           -7.60328660966467        5.25843462886339       -0.64427146459440
C           -5.31452951030299        3.45236744799246        0.10260660393164
C           -4.29245897421385        2.52585605515997        0.10004315204684
C           -4.63285524205651        1.17951736841448        0.09308937509241
N           -3.82301453046309        0.06442427945130        0.06502777756322
C           -2.42177927992058        0.07060380660764        0.08303519114860
C           -1.70073265440558       -0.67273943375142       -0.85034409644147
C           -0.32399380350130       -0.66006970584323       -0.83202399006825
C            0.38433382700437        0.10051206999055        0.10655061118769
C            1.83917714061232        0.12632163594549        0.10812347577725
C            2.59066686790296       -1.00306032257786       -0.25017694505170
C            3.95943261865157       -0.97506831988400       -0.25019518223435
C            4.67270071928909        0.19482824852017        0.08868439368491
C            6.10188579141026        0.17785629659865        0.05379380790879
C            6.92236853080923        1.29842132864047        0.27211212059252
C            8.29490423624444        1.14203581257381        0.19577345230240
C            9.25552315816055        2.20744928900950        0.39686483574830
C           10.62126396954892        1.88882659605078        0.44620602585289
C           11.57175692585938        2.86767334570366        0.63550686914077
C           11.19244723728896        4.19399822585585        0.77957358688956
C            9.84667010724858        4.52568295579681        0.72886202312341
C            8.88866889569513        3.55159154850950        0.54013910303212
N            8.79998565228176       -0.09778110697827       -0.07620100408767
C            8.01448533343227       -1.13670752885453       -0.28074715499339
C            8.60627776013541       -2.44128687023397       -0.56922143364666
C            7.79757690980379       -3.56942603927537       -0.68566201043554
C            8.36069609946995       -4.80180022318299       -0.95342132480215
C            9.73324745338461       -4.92017434747091       -1.10829350690740
C           10.54301290798418       -3.80097892946774       -0.99507258483292
C            9.98457750772988       -2.56644532904168       -0.72641104606028
N            6.71461429638759       -1.00928804498959       -0.22315754624538
C            3.91503049710934        1.32721181641819        0.44506899183225
C            2.54440294005406        1.28559263960693        0.46240933977495
C           -0.35555938501859        0.84000914778261        1.03761183769128
C           -1.73236162478477        0.82357033615684        1.03251986092530
C           -8.85895666853219       -3.86384648093216        0.60936755499181
C           -9.84359437327401       -4.83173057743402        0.54790218124837
H          -10.45250369870004       -6.69479273415045       -0.31602193208416
H           -8.39567915184613       -6.93541392640451       -1.65827324676876
H           -6.64699985830344       -5.21373586038490       -1.55619207721503
H           -5.04291099574475       -4.38146595004185       -0.02588612985247
H           -3.24484624627352       -2.70955279814634        0.06425936422063
H           -8.02362996133410       -1.30989701929412       -0.07430070191714
H           -8.03325913485724        1.41768539539318        0.01996934358590
H           -8.94865982292376        3.04041795678766        1.51757029993151
H          -10.71685830572170        4.74591249259532        1.55550848286793
H          -10.49557484998984        6.79070002438026        0.19149733140734
H           -8.49774550632172        7.11000987663165       -1.22136162593587
H           -6.73867899154631        5.39678079102708       -1.27715220117890
H           -5.06950268470317        4.50365828715789        0.12943061838873
H           -3.26062090527077        2.84210728416568        0.09452092069095
H           -2.23097554451288       -1.23459395442882       -1.60532798551743
H            0.21811448129949       -1.21809681442626       -1.58046128574667
H            2.07998097262103       -1.92257487348496       -0.49826251865783
H            4.52506328156795       -1.85565305018251       -0.51566198771781
H            6.48651187431204        2.25677239580588        0.49437256765935
H           10.91170977664820        0.85476037017793        0.33774425584225
H           12.61797128846161        2.59917073187527        0.67163774016793
H           11.93681711984991        4.96202347692048        0.92742016494198
H            9.54344275093235        5.55753668335125        0.83555725311257
H            7.85064902737844        3.84294159060951        0.49391677519561
H            6.73106286102489       -3.46162374381329       -0.55945020413713
H            7.73095486291096       -5.67500079546839       -1.04133336796193
H           10.17172067606935       -5.88498844620928       -1.31709761831941
H           11.61220116651857       -3.89433340787884       -1.11698405487276
H           10.60142161865804       -1.68517264532042       -0.63770288524523
H            4.40902335273714        2.24816459836409        0.71437671857455
H            1.99494058707268        2.17928183551933        0.72187035222440
H            0.16161734838810        1.40774568967216        1.79633535213908
H           -2.28709083650071        1.37286739538625        1.77912120709446
H           -8.98379923849964       -3.01118539845543        1.26101937037135
H          -10.74102736564108       -4.72300784281465        1.13967029219935
