  72
       -111.57363782
 C         -7.6006958298        0.2343199164        1.1647435755
 C         -6.6887106249       -0.0163066352       -0.0501117203
 C         -7.5360409103       -0.2895501892       -1.3062984483
 C         -5.8309972373       -1.2343659528        0.2336745442
 C         -6.4438301318       -2.4524631853        0.4957075707
 C         -5.7185988556       -3.5915229601        0.7903328205
 C         -4.3386329062       -3.5175440270        0.8445004354
 C         -3.7041920244       -2.3208517516        0.5867559751
 C         -4.4341646108       -1.1742176180        0.2590767444
 N         -3.7681368288        0.0158414856       -0.0042844921
 C         -2.3528235789        0.0239435599        0.0016405891
 C         -1.6477599399       -0.6016595183       -1.0215935314
 C         -0.2682235490       -0.6119945222       -1.0084083111
 C          0.4283145921        0.0166654522        0.0206006854
 C          1.8972219319        0.0052308289        0.0400505528
 C          2.6104235078       -1.1986117605       -0.0428858391
 C          1.9020332965       -2.4152364733       -0.1464025325
 N          1.3058019166       -3.3914531517       -0.2371157863
 C          4.0205518433       -1.1525287797       -0.0537785587
 C          4.8508734602       -2.3576292999       -0.1566771358
 C          4.5301350219       -3.5323437445        0.5188104470
 C          5.3429293633       -4.6443146514        0.3979996307
 C          6.4780290310       -4.5977914737       -0.3939618759
 C          6.8124960703       -3.4259373635       -1.0538764006
 C          6.0097245638       -2.3093368935       -0.9301796105
 N          4.6733257257       -0.0037932612        0.0137143378
 C          4.0308043667        1.1479629768        0.1330901693
 C          4.8715787545        2.3435277911        0.2417810892
 C          4.5070975861        3.4303799113        1.0334229632
 C          5.3332829817        4.5356238482        1.1162710756
 C          6.5274914907        4.5696328207        0.4156039428
 C          6.9052643858        3.4840815615       -0.3588399581
 C          6.0876099077        2.3747045438       -0.4404367318
 C          2.6210490109        1.2019596661        0.1373122698
 C          1.9165849776        2.4251897542        0.1065813824
 N          1.3193049873        3.4021425092        0.0313620905
 C         -0.2795869479        0.6557629027        1.0355914818
 C         -1.6593203336        0.6523661774        1.0309774784
 C         -4.4512500017        1.1934401654       -0.2791928804
 C         -3.7369034700        2.3581129271       -0.5756009510
 C         -4.3895087987        3.5425716842       -0.8447274843
 C         -5.7717659252        3.5855640622       -0.8342958542
 C         -6.4804768479        2.4286542314       -0.5703619965
 C         -5.8493491081        1.2227809105       -0.2958061164
 H         -8.2379734271       -0.6244204231        1.3565511492
 H         -8.2370422419        1.0995482967        1.0010399513
 H         -6.9946309315        0.4164274184        2.0503706311
 H         -8.1820251614        0.5547125456       -1.5307004125
 H         -6.8846090527       -0.4599188377       -2.1615556770
 H         -8.1595919967       -1.1688372525       -1.1699795068
 H         -7.5210530703       -2.5196438257        0.4720813804
 H         -6.2272410031       -4.5233038749        0.9853539808
 H         -3.7507513793       -4.3890532974        1.0901832583
 H         -2.6277303747       -2.2741971985        0.6448864505
 H         -2.1891032559       -1.0836586470       -1.8214379741
 H          0.2724704107       -1.0888009216       -1.8125049274
 H          3.6618392330       -3.5726659088        1.1587593774
 H          5.0879161654       -5.5503846951        0.9266494331
 H          7.1053051966       -5.4713453634       -0.4909427071
 H          7.7019397756       -3.3838431206       -1.6648901378
 H          6.2593438729       -1.3907987224       -1.4386179138
 H          3.5919742446        3.4055898023        1.6053376616
 H          5.0433998213        5.3727112306        1.7333127916
 H          7.1665838165        5.4376661846        0.4792636984
 H          7.8405806546        3.5038198442       -0.8984080161
 H          6.3710340251        1.5218316731       -1.0374219798
 H          0.2528336710        1.1329589835        1.8453837190
 H         -2.2092956280        1.1371643630        1.8233274012
 H         -2.6584429078        2.3351405887       -0.6019190253
 H         -3.8137037000        4.4285850628       -1.0658661712
 H         -6.2948798255        4.5069754493       -1.0400065534
 H         -7.5591420459        2.4715603255       -0.5829133934
