72
 energy: -111.573702984727 gnorm: 0.000074855028 xtb: 6.7.1 (edcfbbe)
C           -7.57001544627301        0.27274121964833        1.19895912723402
C           -6.68861601791249        0.01508341191182       -0.03692515617773
C           -7.56716216218527       -0.23032156014228       -1.27728457320644
C           -5.84902419549297       -1.22154586421471        0.21953267799963
C           -6.48060028564085       -2.43185415980807        0.47293737444186
C           -5.77278973606127       -3.58728858615502        0.74528396098307
C           -4.39131003905741       -3.53814356962786        0.78607275758475
C           -3.73842871832515       -2.34938628014736        0.53762021378268
C           -4.45105525171908       -1.18593649073229        0.23196914517186
N           -3.76731235059090       -0.00389537449328       -0.02225244613454
C           -2.35225701314699       -0.01047650290890       -0.00666499798548
C           -1.64350547891600       -0.64054869033651       -1.02464014151212
C           -0.26395505171086       -0.65510341407199       -1.00384698402891
C            0.42887220584986       -0.02526564306215        0.02684647852438
C            1.89782081519779       -0.02716895308240        0.04775863993893
C            2.62266820055909       -1.22442721589771       -0.03033908910774
C            1.92373752966023       -2.44703957320293       -0.12647949688484
N            1.33225659504035       -3.42667461407348       -0.21109228788588
C            4.03226355275074       -1.16467491796846       -0.04360624671698
C            4.87552737917909       -2.36106753359796       -0.14183800863123
C            4.56621884762050       -3.53803891726113        0.53510417943890
C            5.39273443339416       -4.64045683628756        0.42000824331794
C            6.53028358711284       -4.58224104646669       -0.36768377796405
C            6.85305882852295       -3.40813648125595       -1.02940938615952
C            6.03652979547132       -2.30098386109582       -0.91139763456688
N            4.67401867885679       -0.00905430061061        0.01711542617720
C            4.02020294661865        1.13638099733970        0.13266599066193
C            4.84704964185591        2.34233364798046        0.23344987078580
C            4.47768002074312        3.42221750130533        1.03211378454131
C            5.28942023376933        4.53875611328713        1.10641399434491
C            6.47307035443848        4.59118946237439        0.38922762839248
C            6.85545732392121        3.51282472020275       -0.39292565450848
C            6.05288286196471        2.39183005765981       -0.46524984973970
C            2.61008530208671        1.17671445394338        0.13918828905932
C            1.89624709578313        2.39428165430192        0.10412163899782
N            1.29429499528330        3.36785211035917        0.02387584150817
C           -0.28265780628235        0.61439361603748        1.03898616187783
C           -1.66216104712538        0.61410393716555        1.02746365001414
C           -4.43326094690575        1.18606334788685       -0.28723483647832
C           -3.70211635032253        2.33882485114315       -0.58958748472603
C           -4.33679282011375        3.53541840362707       -0.84746129558708
C           -5.71783906995189        3.60311622927492       -0.81912318450118
C           -6.44363839514533        2.45798153231502       -0.55062518672868
C           -5.83060806185905        1.23995132191572       -0.28871241338600
H           -8.21707860620064       -0.57677229592137        1.39903224471146
H           -8.19486041320065        1.14969454490269        1.05413624413829
H           -6.94211412552521        0.43894487756838        2.07241611585985
H           -8.20143497804202        0.62798467161730       -1.48061947330807
H           -6.93710497901019       -0.40515882344688       -2.14747356722120
H           -8.20498965514616       -1.09842280930379       -1.13591642005782
H           -7.55905609515011       -2.47939849161053        0.46127618367515
H           -6.29596196244625       -4.51231047964950        0.93384171155112
H           -3.81643258845443       -4.42299061868417        1.01428104916333
H           -2.66087434485758       -2.32244732382375        0.58648239933102
H           -2.18175583473087       -1.12029871454354       -1.82797039305380
H            0.27970088489684       -1.13436178974403       -1.80452346845240
H            3.69619335887541       -3.58725240066768        1.17204607610311
H            5.14672802815159       -5.54820577483819        0.95004114392596
H            7.16852022407523       -5.44833669518091       -0.45988541453551
H            7.74435619363561       -3.35678853710653       -1.63700527850014
H            6.27763650694803       -1.38046668441432       -1.42025780482037
H            3.57030496794974        3.38324537842399        1.61569549065079
H            4.99639916201317        5.37037935265164        1.72935283173727
H            7.10043099098421        5.46822682251271        0.44571817005558
H            7.78237493047265        3.54735674537790       -0.94593231546260
H            6.33965726659408        1.54444311690117       -1.06834706790604
H            0.24692781381349        1.09088474583387        1.85106849278669
H           -2.21496246130223        1.10127232572458        1.81637815524214
H           -2.62462966260516        2.29723374862369       -0.62924239812023
H           -3.74797579434921        4.41158449780463       -1.07344394768377
H           -6.22688191482683        4.53455366033564       -1.01469935919407
H           -7.52142790838977        2.52005741374816       -0.54858013877777
