  72
       -111.49704997
 C         -7.5861784576        0.2570473554        1.2195734868
 C         -6.6917039837       -0.0005102197       -0.0081990252
 C         -7.5605931017       -0.2597837379       -1.2539603790
 C         -5.8471957013       -1.2284980827        0.2586178617
 C         -6.4631633441       -2.4451439654        0.5174635175
 C         -5.7360678116       -3.5917252296        0.7799209667
 C         -4.3508173696       -3.5346263971        0.7958416221
 C         -3.7108815737       -2.3427866732        0.5421269246
 C         -4.4447581419       -1.1812097452        0.2612777171
 N         -3.7787732190       -0.0007268691        0.0043971259
 C         -2.3539676243       -0.0023915836        0.0032360100
 C         -1.6655624022       -0.4774480461       -1.1051034035
 C         -0.2848942315       -0.4817189987       -1.1029104977
 C          0.4150228473       -0.0025200733       -0.0015347548
 C          1.8919145809       -0.0013837883       -0.0032473358
 C          2.5677105493       -1.2177654755       -0.1113214411
 C          1.8122250379       -2.3841553874       -0.0319605823
 N          1.0892160322       -3.2836634240        0.0339803430
 C          4.0280208401       -1.1735230810       -0.1251997832
 C          4.8790786673       -2.3351582891       -0.1905643372
 C          4.4413497405       -3.5798093124       -0.6637764694
 C          5.3112554024       -4.6480449208       -0.7343633304
 C          6.6318519209       -4.5122490504       -0.3331978266
 C          7.0823881518       -3.2822332851        0.1304575796
 C          6.2244153754       -2.2098590156        0.2012686274
 N          4.5954727848        0.0010994684       -0.0003977268
 C          4.0257780767        1.1751358035        0.1218598999
 C          4.8752291011        2.3376208817        0.1891233508
 C          4.4327636881        3.5850317972        0.6507397879
 C          5.3015119362        4.6540573875        0.7231246684
 C          6.6259956929        4.5164810828        0.3356488359
 C          7.0813470074        3.2838288419       -0.1162484756
 C          6.2244697031        2.2107952226       -0.1890640391
 C          2.5652941027        1.2164784469        0.1044718034
 C          1.8065014672        2.3804846675        0.0224833139
 N          1.0794169408        3.2767937622       -0.0427023835
 C         -0.2812005225        0.4760646016        1.1025259609
 C         -1.6617687940        0.4719357189        1.1095684214
 C         -4.4422899881        1.1814085115       -0.2516884322
 C         -3.7061363097        2.3443502997       -0.5207040528
 C         -4.3439249706        3.5377889046       -0.7722977696
 C         -5.7292468650        3.5949349702       -0.7676794403
 C         -6.4585146436        2.4468929249       -0.5179816698
 C         -5.8447181903        1.2290683273       -0.2594588067
 H         -8.2239294408       -0.5988366572        1.4201178675
 H         -8.2206587527        1.1240600830        1.0607228750
 H         -6.9685151128        0.4388016906        2.0969121146
 H         -8.2006149858        0.5924625772       -1.4629916938
 H         -6.9249498180       -0.4331632411       -2.1201153067
 H         -8.1910234961       -1.1325030248       -1.1105313494
 H         -7.5405710931       -2.5062336962        0.5165490756
 H         -6.2470648158       -4.5216352234        0.9755271397
 H         -3.7682678281       -4.4176201320        1.0069418181
 H         -2.6334409318       -2.3035618513        0.5615078275
 H         -2.2151123491       -0.8438997146       -1.9592186465
 H          0.2536828670       -0.8501678897       -1.9629187285
 H          3.4221492111       -3.7058753578       -0.9919458373
 H          4.9560280700       -5.5983279290       -1.1055468901
 H          7.3052541716       -5.3547171762       -0.3834295999
 H          8.1119862407       -3.1668986688        0.4377466034
 H          6.5677275751       -1.2517254023        0.5625712983
 H          3.4103935642        3.7130024073        0.9679551860
 H          4.9421559823        5.6065390366        1.0845572616
 H          7.2986019911        5.3594877923        0.3874164228
 H          8.1141145443        3.1668214065       -0.4120432180
 H          6.5719660814        1.2502499398       -0.5397754844
 H          0.2603608517        0.8435780765        1.9610062360
 H         -2.2082679882        0.8381834063        1.9656745822
 H         -2.6286076126        2.3052808681       -0.5325220466
 H         -3.7595251639        4.4218147243       -0.9737208135
 H         -6.2385225203        4.5258810170       -0.9628368361
 H         -7.5358789665        2.5075273606       -0.5276604492
