72
 energy: -111.573704715503 gnorm: 0.000023372094 xtb: 6.7.1 (edcfbbe)
C           -7.17017711042241        0.12200171752357        1.21652629441863
C           -6.28356835825574       -0.01043748520646       -0.03529169946355
C           -7.15682771014264       -0.13508216994866       -1.29723315482347
C           -5.44102759047830       -1.26382726088863        0.10193537537247
C           -6.07006835656093       -2.49464115615662        0.23401459063099
C           -5.36007237765183       -3.66912216548699        0.39702022448945
C           -3.97903443930510       -3.62016750352076        0.45088257238860
C           -3.32873309203308       -2.41129200805268        0.32117131999130
C           -4.04322452190305       -1.22583168011609        0.12325019470132
N           -3.36180172972230       -0.02311623159851       -0.01521795746369
C           -1.94713615035863       -0.02754640793716        0.00009510623030
C           -1.23646388642373       -0.57233446152686       -1.06484987679066
C            0.14313932434282       -0.58296149115191       -1.04608338617186
C            0.83430235015404       -0.03212968362055        0.02987231716043
C            2.30331745937162       -0.02414448639819        0.04762258960954
C            3.03810149839495       -1.20639294265420       -0.11669650691589
C            2.34882277343908       -2.42422055958790       -0.30182962422437
N            1.76425772128629       -3.39904660205750       -0.45889873123489
C            4.44713699757918       -1.13381780192989       -0.12514395350075
C            5.30109019621657       -2.31327961136415       -0.30280220848899
C            5.00000327799775       -3.53668920564449        0.29038466537063
C            5.83757188835131       -4.62093967294317        0.10440978910052
C            6.97801908603612       -4.49844131310322       -0.67163692571370
C            7.29225987742930       -3.27897740047255       -1.25023043835077
C            6.46466537352602       -2.19010925596340       -1.06092187942048
N            5.07891485880475        0.02050771944281        0.01459302683711
C            4.41550122837638        1.14959318672229        0.20925665510423
C            5.23195843801054        2.35351329156208        0.38857702994092
C            4.85571143097361        3.37419597198614        1.25866999384552
C            5.65734021912666        4.49097487516074        1.40462498245565
C            6.83771623373721        4.60231469155944        0.68877562422195
C            7.22709817426318        3.58211484234146       -0.16470431212350
C            6.43462073743445        2.46090569480226       -0.30909748257130
C            3.00517549773871        1.17658008725509        0.22268811242709
C            2.27931972830399        2.38636132492571        0.27602506085187
N            1.66610240265817        3.35616024261824        0.26718363270482
C            0.12113488575754        0.52155632381168        1.09035056232734
C           -1.25828818165753        0.51497507825189        1.08051774799823
C           -4.03097479157771        1.18532864120577       -0.16543703727929
C           -3.30340470896830        2.36399359723008       -0.35621301374412
C           -3.94137393912062        3.57829827583127       -0.49613725346182
C           -5.32252276644628        3.63950320880373       -0.45966166400539
C           -6.04495697091818        2.47158708610443       -0.30442440674852
C           -5.42847550654519        1.23545375679889       -0.16277233563706
H           -7.81385185695876       -0.74576326708420        1.33071944713578
H           -7.79879332205052        1.00603926207697        1.15536674707670
H           -6.54590554550938        0.20524337395239        2.10431227277284
H           -7.79166625585902        0.73818205674024       -1.41862700809659
H           -6.52305423490743       -0.22350862832923       -2.17773836145998
H           -7.79375870073383       -1.01363504489199       -1.24364761972044
H           -7.14830064370733       -2.54360418862195        0.21229233844391
H           -5.88123360444517       -4.60946713087260        0.49220839340091
H           -3.40246558428299       -4.52110685438683        0.59712145749099
H           -2.25164262969743       -2.38644030203653        0.37977367027394
H           -1.77333695453279       -0.98879845001212       -1.90363823824119
H            0.68812312794616       -0.99568392290888       -1.88215194135575
H            4.12766195984120       -3.63747155867124        0.91804337504858
H            5.59809380449008       -5.56501040634912        0.57008347776727
H            7.62517490102612       -5.35013850397927       -0.81920054207824
H            8.18565107515044       -3.17797769733292       -1.84845399854420
H            6.69910446657430       -1.23473799759907       -1.50442927027701
H            3.95098245293838        3.28783445219125        1.84124284528712
H            5.35890782551443        5.27646354070805        2.08245589548938
H            7.45707433498130        5.47961226673151        0.80150891750689
H            8.15153797320862        3.66221479462066       -0.71714270273507
H            6.72687224159888        1.65843895720299       -0.96840050945980
H            0.64968257924617        0.93527660444216        1.93681257731107
H           -1.81212301657613        0.93486515953233        1.90652462730984
H           -2.22595200344847        2.32985515553726       -0.40199796829874
H           -3.35488900591449        4.47363503040736       -0.63694097927857
H           -5.83413119891681        4.58426487352731       -0.56272885201935
H           -7.12291365578506        2.53004536883296       -0.29653067075778
