72
 energy: -111.500348455638 gnorm: 0.000078571208 xtb: 6.7.1 (edcfbbe)
C           -7.58296966878303        0.25703539790824        1.22482793263556
C           -6.69376679986394       -0.00032710168901       -0.00669572862630
C           -7.56764494655862       -0.25904645899379       -1.24894312365920
C           -5.84860105457381       -1.22874261442135        0.25687261746520
C           -6.46433001726280       -2.44610164064043        0.51309340993632
C           -5.73707782965834       -3.59298908634960        0.77364794795767
C           -4.35202253324030       -3.53514638117839        0.79126960961885
C           -3.71243243593746       -2.34243651313752        0.54024691200151
C           -4.44645966132799       -1.18103298412040        0.26017240277770
N           -3.78054509699016        0.00011215290364        0.00381509251366
C           -2.35583570933806       -0.00099157470428        0.00409620045917
C           -1.66600698173788       -0.47748729126036       -1.10271699420244
C           -0.28537861460223       -0.48239914850934       -1.09874183483104
C            0.41335165658151       -0.00216146858847        0.00292178029176
C            1.89025649400036       -0.00125737632637        0.00165766954348
C            2.56528859373175       -1.21811854768732       -0.10760499528283
C            1.81093085023595       -2.38518564691683       -0.03026880325885
N            1.08821264699002       -3.28462312927134        0.03602543835475
C            4.02607952946549       -1.17523039962892       -0.12277262906021
C            4.88005131602986       -2.33548861332823       -0.19009431300821
C            4.44317043643761       -3.58178304976064       -0.65736873972154
C            5.31575206323665       -4.64812715402022       -0.72992977185689
C            6.63822210591908       -4.50727146741606       -0.33792886083338
C            7.08767598437904       -3.27524208859829        0.12008965689022
C            6.22657497438218       -2.20509102557406        0.19354095151134
N            4.58832281926938        0.00110338742291        0.00000888161289
C            4.02427573106175        1.17686933598096        0.12290245990004
C            4.87687164154445        2.33791765545089        0.18955222617383
C            4.43737940428060        3.58615617668588        0.64936506981241
C            5.30927954049021        4.65301280557097        0.72210221493215
C            6.63388155059492        4.51097281704627        0.33777936080946
C            7.08590769127645        3.27724091579098       -0.11317356702476
C            6.22547354083502        2.20665628500308       -0.18693849863299
C            2.56330060849839        1.21683766931914        0.10944812129167
C            1.80571969938550        2.38191521621376        0.03307297702021
N            1.07994857303330        3.27897777354475       -0.03243287896876
C           -0.28410099221801        0.47803328307834        1.10544364667056
C           -1.66474487538543        0.47431800569075        1.11062394883202
C           -4.44488971349363        1.18161200825750       -0.25507953654808
C           -3.70931941433102        2.34363450808908       -0.52849834973531
C           -4.34753868841079        3.53654129010019       -0.78209138282212
C           -5.73269688985184        3.59396953519343       -0.77394836519115
C           -6.46135220116852        2.44650127806833       -0.51999999707612
C           -5.84705344941496        1.22901013783604       -0.26095571259071
H           -8.22124393909608       -0.59821552656848        1.42663427878106
H           -8.21660514955240        1.12537399615641        1.06973483872717
H           -6.96161402224649        0.43645178925467        2.10004950612722
H           -8.20133097105587        0.59710613330080       -1.46117890293204
H           -6.93543603513644       -0.44205168910913       -2.11561733796900
H           -8.20490736472607       -1.12577490344023       -1.09964011718361
H           -7.54172072612816       -2.50738713158170        0.51153400202890
H           -6.24782738112028       -4.52357275972652        0.96674449610361
H           -3.76914212320933       -4.41813624327443        1.00158400468089
H           -2.63501284308257       -2.30280979467519        0.56093924690854
H           -2.21442670296648       -0.84398803094968       -1.95742587772493
H            0.25410235913404       -0.85092121388361       -1.95806271523027
H            3.42242763434043       -3.71174874171446       -0.97905638637339
H            4.96067551472735       -5.60042020291757       -1.09596143688461
H            7.31401085692704       -5.34766944826589       -0.39082996448959
H            8.11865915284984       -3.15570446985485        0.42096566011156
H            6.57006567088866       -1.24543710439329        0.55095622867144
H            3.41490893872205        3.71742623580120        0.96484140388192
H            4.95196765220374        5.60669672859652        1.08230343570020
H            7.30923851484085        5.35168359443298        0.39112237445408
H            8.11848502181038        3.15674870736595       -0.40815468158505
H            6.57104476897645        1.24565447155121       -0.53869755539604
H            0.25640589643691        0.84598705646334        1.96437061956254
H           -2.21209580288628        0.84121770490070        1.96584701969877
H           -2.63177801423941        2.30441847422191       -0.54208880934806
H           -3.76349032909507        4.41997626299081       -0.98722012275921
H           -6.24241614289988        4.52461134966050       -0.96948876576968
H           -7.53876171425820        2.50737445543890       -0.52640304033432
