  47
        -67.09335432
 C         -1.4965092734       -2.1989105907       -1.4779788832
 C         -1.0655884180       -1.7342268628       -0.0622142020
 C         -1.8362802198       -2.4698070644        1.0653569292
 C          0.3849845534       -2.1441059020        0.0389071676
 C          0.7140258918       -3.4905365548        0.0728119174
 C          2.0289208950       -3.9200133553        0.0998919757
 C          3.0554268786       -2.9812789616        0.0769054138
 C          2.7612967751       -1.6402326635        0.0456274381
 C          1.4252378582       -1.1991737768        0.0406961560
 N          1.1345063647        0.1409917849        0.0394440489
 C          2.2216730235        1.0612525139       -0.0115629631
 C          2.8807878638        1.4261300455        1.1565373790
 C          3.9434955580        2.3106771671        1.0945054834
 C          4.3480902132        2.8285755821       -0.1246149400
 C          3.6881812422        2.4635977478       -1.2876848288
 C          2.6240719278        1.5803724832       -1.2345009083
 C         -0.1409161524        0.6467861732        0.0894415671
 C         -0.3249597277        2.0161561100        0.1978427086
 C         -1.5935486947        2.5585579018        0.2243476198
 C         -2.7448930605        1.7361162235        0.1147462144
 C         -4.0130453469        2.3049653117        0.1191673436
 C         -5.1731488955        1.5138863095        0.0081352723
 C         -5.0426472023        0.1564720123       -0.1097476759
 C         -3.7751675190       -0.4433519770       -0.1151015243
 C         -2.5851869167        0.3159157426        0.0032539310
 C         -1.2877022261       -0.2459436245        0.0261454285
 H         -0.7981989733       -1.7985625469       -2.2113578844
 H         -1.4777496150       -3.2832066330       -1.5469686071
 H         -2.4878390353       -1.8403385506       -1.7305549954
 H         -2.3386111479       -3.3565175820        0.6870521858
 H         -2.5738083445       -1.8192348746        1.5229396157
 H         -1.1414795962       -2.7773991985        1.8444879039
 H         -0.0751970838       -4.2261547472        0.0798500661
 H          2.2544629228       -4.9744278628        0.1303878524
 H          4.0855919511       -3.3036131780        0.0838033496
 H          3.5608341444       -0.9165099200        0.0259825928
 H          2.5546395435        1.0151113747        2.1003387133
 H          4.4549796437        2.5952469303        2.0015662503
 H          5.1779462513        3.5172248878       -0.1694391086
 H          4.0027277612        2.8649949287       -2.2389833621
 H          2.1004270165        1.2886830600       -2.1327773542
 H          0.5288374047        2.6716535850        0.2656617137
 H         -1.7230164163        3.6252553757        0.3186761629
 H         -4.1054279996        3.3769307156        0.2117060406
 H         -6.1451500345        1.9839692237        0.0155086460
 H         -5.9150796477       -0.4748146122       -0.2005557010
 H         -3.7477533625       -1.5122154178       -0.2121498281
  47
        -67.09326647
 C         -1.4086350643       -2.1594490873       -1.5343736471
 C         -1.0589854807       -1.7374918267       -0.0829607347
 C         -1.8948285617       -2.5031379114        0.9745083744
 C          0.3844502180       -2.1542963336        0.0791846506
 C          0.7055600990       -3.5026491240        0.1237276235
 C          2.0171835906       -3.9388944738        0.1744057595
 C          3.0489666146       -3.0063118676        0.1522905887
 C          2.7625653484       -1.6635843077        0.1079994381
 C          1.4299612468       -1.2148783849        0.0962489166
 N          1.1423286375        0.1269578080        0.0941864113
 C          2.2160148699        1.0552911953       -0.0123653987
 C          3.0102070856        1.3468705898        1.0921600082
 C          4.0491322180        2.2523394818        0.9678638777
 C          4.2983166540        2.8656540324       -0.2485071535
 C          3.5048190863        2.5735969352       -1.3481467101
 C          2.4638930752        1.6706641546       -1.2326634718
 C         -0.1330452126        0.6307521940        0.1711086622
 C         -0.3146012338        1.9910267654        0.3668494487
 C         -1.5807139034        2.5374843334        0.3899331457
 C         -2.7298481546        1.7328819715        0.1712400504
 C         -3.9935100183        2.3106235059        0.1517998564
 C         -5.1512102841        1.5372719366       -0.0595548983
 C         -5.0228033577        0.1878825394       -0.2515992795
 C         -3.7601607790       -0.4205374347       -0.2357121448
 C         -2.5728787242        0.3205458552       -0.0174819307
 C         -1.2813166198       -0.2519640203        0.0396619646
 H         -1.3696862787       -3.2407790142       -1.6366310137
 H         -2.3904584487       -1.8059020512       -1.8276651284
 H         -0.6787993645       -1.7262290978       -2.2166689420
 H         -2.6687496645       -1.8697777162        1.3939183493
 H         -1.2508506088       -2.8192413213        1.7925688352
 H         -2.3614918907       -3.3862338317        0.5455729209
 H         -0.0873499748       -4.2342172526        0.1163523006
 H          2.2364279428       -4.9943186007        0.2157987223
 H          4.0772490354       -3.3342094381        0.1686477017
 H          3.5669309125       -0.9456195106        0.0833598707
 H          2.8034846094        0.8653595189        2.0364907754
 H          4.6629231774        2.4810346915        1.8260919069
 H          5.1082982971        3.5728049621       -0.3409946136
 H          3.6969091988        3.0497993980       -2.2975535502
 H          1.8353870217        1.4383634249       -2.0796874148
 H          0.5399632566        2.6338701062        0.5077164520
 H         -1.7102824055        3.5948276908        0.5590356363
 H         -4.0843387715        3.3756591548        0.3061904705
 H         -6.1199743854        2.0139217861       -0.0690115424
 H         -5.8938340089       -0.4294561452       -0.4190671466
 H         -3.7332042251       -1.4816341738       -0.3977286156
  47
        -67.09259495
 C         -1.9620215478       -2.5642454540       -0.8000930121
 C         -1.0415785581       -1.7339452677        0.1269131982
 C         -1.2726812325       -2.0549991365        1.6274439237
 C          0.3876629835       -2.1665317338       -0.1122636473
 C          0.6992482402       -3.5173590765       -0.1573090559
 C          2.0062775083       -3.9612109757       -0.2435586874
 C          3.0443107585       -3.0362582617       -0.2464882809
 C          2.7676051193       -1.6910304477       -0.1968748145
 C          1.4396714466       -1.2349868730       -0.1612129252
 N          1.1541207596        0.1085485188       -0.1690472096
 C          2.1952548413        1.0496832373        0.0522673877
 C          3.1344787002        1.3414721485       -0.9334650075
 C          4.1355205965        2.2605374126       -0.6733506115
 C          4.2065597735        2.8890127599        0.5586650322
 C          3.2649376377        2.6024955123        1.5375617788
 C          2.2606908575        1.6883049246        1.2859728606
 C         -0.1207081984        0.6030325881       -0.3050669175
 C         -0.2958552795        1.9389497418       -0.6293593905
 C         -1.5604104713        2.4846917227       -0.6954085679
 C         -2.7053554748        1.7181462575       -0.3490093175
 C         -3.9652045895        2.3042450123       -0.3510058908
 C         -5.1157402662        1.5731900705        0.0003727133
 C         -4.9849372204        0.2574385305        0.3570489698
 C         -3.7273836035       -0.3602771355        0.3610947845
 C         -2.5499991195        0.3341283259       -0.0080071445
 C         -1.2688353202       -0.2591009765       -0.0828230778
 H         -2.3455543261       -3.4441471072       -0.2899438423
 H         -2.8011491066       -1.9729790347       -1.1489006893
 H         -1.4033960733       -2.8886106081       -1.6754786134
 H         -1.1960564346       -3.1253991839        1.8015216055
 H         -2.2399255047       -1.7040553931        1.9682253915
 H         -0.5071872689       -1.5576425683        2.2211546258
 H         -0.0959687197       -4.2450692944       -0.1174467092
 H          2.2175466793       -5.0181851327       -0.2885431538
 H          4.0697583123       -3.3709293834       -0.2856832778
 H          3.5768226812       -0.9785058557       -0.1874377366
 H          3.0661271720        0.8551622684       -1.8954122798
 H          4.8618607656        2.4882069775       -1.4391383431
 H          4.9902665264        3.6037183141        0.7571995158
 H          3.3157037719        3.0901537844        2.4991357140
 H          1.5210025061        1.4570326851        2.0384575456
 H          0.5635853867        2.5562111280       -0.8407851949
 H         -1.6919079876        3.5164701676       -0.9807165033
 H         -4.0585151037        3.3428579429       -0.6318153815
 H         -6.0814186296        2.0559122072       -0.0099350102
 H         -5.8501162083       -0.3242540998        0.6414973506
 H         -3.6939191556       -1.3899319511        0.6654695575
  47
        -67.09227441
 C         -1.9831738211       -2.5699889302       -0.7476257781
 C         -1.0369051649       -1.7290929857        0.1413119574
 C         -1.2245548338       -2.0321010935        1.6521137688
 C          0.3859883727       -2.1648152446       -0.1292797450
 C          0.6990735678       -3.5144461985       -0.1880976799
 C          2.0067480286       -3.9545362411       -0.2894700929
 C          3.0438416831       -3.0284315211       -0.2959711244
 C          2.7656818368       -1.6838710150       -0.2368975143
 C          1.4370170189       -1.2322154066       -0.1833625849
 N          1.1510792496        0.1099829276       -0.1856541325
 C          2.1925231260        1.0477015580        0.0548505180
 C          3.0918270611        1.4117116545       -0.9433653236
 C          4.0918913890        2.3253351039       -0.6610963972
 C          4.2025129910        2.8737689666        0.6059697779
 C          3.3025337601        2.5118800096        1.5986737830
 C          2.2981131417        1.6041863675        1.3246255911
 C         -0.1236374987        0.6046850906       -0.3209330864
 C         -0.3003695101        1.9377287260       -0.6538043598
 C         -1.5674322316        2.4775824934       -0.7314783528
 C         -2.7092674269        1.7130344849       -0.3720807006
 C         -3.9731150405        2.2909987844       -0.3924838634
 C         -5.1180298149        1.5664482390       -0.0116782601
 C         -4.9783139709        0.2672488155        0.3987183692
 C         -3.7175227918       -0.3438781209        0.4169275933
 C         -2.5481362902        0.3391270270        0.0057211327
 C         -1.2683069823       -0.2562604147       -0.0798579501
 H         -2.3274655140       -3.4592394016       -0.2258130197
 H         -2.8480372525       -1.9925177915       -1.0538501600
 H         -1.4589593287       -2.8788728752       -1.6495353823
 H         -1.1478410459       -3.1011553215        1.8346557160
 H         -2.1793750778       -1.6728538876        2.0183166653
 H         -0.4390569239       -1.5327515142        2.2173876451
 H         -0.0936955528       -4.2445619269       -0.1453172029
 H          2.2194330254       -5.0108801160       -0.3424763053
 H          4.0691526067       -3.3618705566       -0.3476379947
 H          3.5716933763       -0.9672888491       -0.2362200238
 H          2.9953646494        0.9831865160       -1.9300829501
 H          4.7869553627        2.6113084365       -1.4362753131
 H          4.9864126039        3.5832246284        0.8219208032
 H          3.3848379353        2.9363631195        2.5876827527
 H          1.5867368679        1.3181557630        2.0856316538
 H          0.5581844531        2.5552886273       -0.8676618136
 H         -1.7024265363        3.5048644590       -1.0310674416
 H         -4.0734329167        3.3182951108       -0.7101558085
 H         -6.0866461192        2.0427481721       -0.0371958111
 H         -5.8380214371       -0.3054214882        0.7160141398
 H         -3.6739476773       -1.3572457610        0.7712040347
  47
        -67.09216007
 C         -2.0062728927       -2.5628170748       -0.7299059556
 C         -1.0290941008       -1.7380700581        0.1395866280
 C         -1.1686950035       -2.0660552711        1.6499937540
 C          0.3841296408       -2.1708099972       -0.1839946576
 C          0.6882274612       -3.5204362302       -0.2835341347
 C          1.9900094846       -3.9651559854       -0.4269176297
 C          3.0317674017       -3.0450302600       -0.4261403388
 C          2.7625005903       -1.7007624860       -0.3254321227
 C          1.4385087824       -1.2418865624       -0.2420490328
 N          1.1546453544        0.1022812081       -0.2144935931
 C          2.1881194179        1.0460394885        0.0218265162
 C          2.2182304433        1.6953864426        1.2523292495
 C          3.2100435580        2.6164913971        1.5239202229
 C          4.1763420293        2.9009731272        0.5682334103
 C          4.1399791138        2.2640439787       -0.6608700084
 C          3.1506531580        1.3382996158       -0.9415773917
 C         -0.1240238278        0.5950365055       -0.3267229451
 C         -0.3072848057        1.9250310708       -0.6687547048
 C         -1.5731971921        2.4705563256       -0.7026804727
 C         -2.7035217805        1.7153280964       -0.2887040353
 C         -3.9614957265        2.3042532851       -0.2511300859
 C         -5.0954533224        1.5875652407        0.1747985946
 C         -4.9502142666        0.2833441181        0.5670267859
 C         -3.6952123925       -0.3381693195        0.5291560254
 C         -2.5368772918        0.3393177760        0.0790993829
 C         -1.2643554713       -0.2624167225       -0.0542930519
 H         -1.5221819575       -2.8338427191       -1.6657575507
 H         -2.3134840778       -3.4732903732       -0.2218318818
 H         -2.8921595142       -1.9880159495       -0.9743636609
 H         -2.1187669727       -1.7292360522        2.0483714671
 H         -0.3758438976       -1.5618707018        2.2004651836
 H         -1.0693155617       -3.1363549879        1.8138410012
 H         -0.1072756213       -4.2473611922       -0.2403331065
 H          2.1948104673       -5.0206531454       -0.5158524580
 H          4.0543188009       -3.3820300230       -0.5029144054
 H          3.5750689396       -0.9922902525       -0.3114101852
 H          1.4570444841        1.4691191540        1.9847072238
 H          3.2312549551        3.1128667721        2.4821819159
 H          4.9507975181        3.6212262577        0.7822320842
 H          4.8845510550        2.4909978791       -1.4092248911
 H          3.1078103659        0.8506916167       -1.9043523013
 H          0.5464976368        2.5359351687       -0.9188930690
 H         -1.7150947281        3.4957827679       -1.0060424688
 H         -4.0658610033        3.3345526173       -0.5576511770
 H         -6.0596244046        2.0729310763        0.1956201681
 H         -5.8015944993       -0.2855805962        0.9123903778
 H         -3.6470771280       -1.3561597603        0.8697639197
  47
        -67.09165656
 C         -1.6632638554       -2.3390047927       -1.3349254856
 C         -1.0687868878       -1.7493281405       -0.0276238961
 C         -1.6945719536       -2.3899580605        1.2363070986
 C          0.3913611247       -2.1481300586       -0.0098852986
 C          0.7344675575       -3.4918581267        0.0192886963
 C          2.0522110565       -3.9133216326        0.0166975448
 C          3.0724880322       -2.9684287249       -0.0207289608
 C          2.7668736750       -1.6302922964       -0.0361974813
 C          1.4270208286       -1.1991369375       -0.0173689848
 N          1.1315838605        0.1387089876       -0.0034265867
 C          2.2199565315        1.0603108415       -0.0051486908
 C          2.8071893872        1.4376790514        1.1958857715
 C          3.8708390544        2.3234498040        1.1892434968
 C          4.3467833009        2.8299806969       -0.0088567310
 C          3.7592091959        2.4513787118       -1.2052593834
 C          2.6950586586        1.5661026047       -1.2075913772
 C         -0.1454893055        0.6409846429        0.0295050619
 C         -0.3238099346        2.0141369094        0.0855892774
 C         -1.5885163911        2.5638446073        0.1029183306
 C         -2.7424136341        1.7408414099        0.0528721100
 C         -4.0058558924        2.3202221190        0.0633091222
 C         -5.1752935287        1.5374199889        0.0155699146
 C         -5.0550868221        0.1759214649       -0.0471293099
 C         -3.7914979703       -0.4316264200       -0.0614327768
 C         -2.5904967048        0.3153604441       -0.0063437100
 C         -1.2946292635       -0.2549176327        0.0019593287
 H         -1.5805212889       -1.6086301963       -2.1364659398
 H         -1.1199457866       -3.2312326149       -1.6330271513
 H         -2.7073713216       -2.6063444494       -1.2273581541
 H         -2.6276275332       -1.9065088027        1.5029393420
 H         -1.0093706336       -2.2778809684        2.0748332782
 H         -1.8774991294       -3.4494707405        1.0820238638
 H         -0.0443913183       -4.2384115796        0.0439048529
 H          2.2841218274       -4.9664017285        0.0386762264
 H          4.1047516192       -3.2835602320       -0.0352342823
 H          3.5598873601       -0.8996723825       -0.0613232957
 H          2.4254785288        1.0354464319        2.1224669071
 H          4.3273710580        2.6171769717        2.1222007063
 H          5.1763133571        3.5202400944       -0.0107871408
 H          4.1296119512        2.8445180572       -2.1396500596
 H          2.2269781199        1.2635219188       -2.1324359747
 H          0.5328213341        2.6684821305        0.1150827409
 H         -1.7130957440        3.6340914351        0.1479180751
 H         -4.0855859373        3.3960732482        0.1111644450
 H         -6.1431787334        2.0156250337        0.0271015341
 H         -5.9324310940       -0.4537047898       -0.0880917924
 H         -3.7797363136       -1.5017471682       -0.1224325468
  47
        -67.09050796
 C         -0.7333269994       -1.4988817153       -2.1441059855
 C         -0.9794527646       -1.6652988626       -0.6168407811
 C         -2.1000578632       -2.6896778666       -0.4617084572
 C          0.3326924062       -2.1398972800       -0.0239219831
 C          0.6028449902       -3.4712073860        0.2334229793
 C          1.8279107980       -3.8754316568        0.7445364288
 C          2.8104042467       -2.9331582467        0.9990754745
 C          2.5708201677       -1.6007725734        0.7406863957
 C          1.3407742869       -1.1889924805        0.2141832444
 N          1.1113249122        0.1491570970       -0.0557221890
 C          2.2093948412        1.0436031223       -0.0515703686
 C          3.2075569270        0.9124171811       -1.0137980664
 C          4.2807315377        1.7841801353       -1.0153808779
 C          4.3669852654        2.7863677310       -0.0629959028
 C          3.3736299114        2.9155813064        0.8970344605
 C          2.2968467448        2.0496561445        0.9053539953
 C         -0.1555229079        0.6406788773       -0.2442852349
 C         -0.3976292368        1.9603912025       -0.5702104214
 C         -1.6991350698        2.4375719581       -0.5716222150
 C         -2.7752354459        1.6395348475       -0.0997857887
 C         -4.0575731523        2.1651833478        0.0268859026
 C         -5.1095044168        1.4043011033        0.5585523487
 C         -4.8671180775        0.1253114181        0.9902771513
 C         -3.5916922226       -0.4385235369        0.8456991246
 C         -2.5435336628        0.2637350763        0.2353784556
 C         -1.2767438591       -0.2872096308       -0.0850341165
 H         -1.6460106885       -1.1509628816       -2.6224284902
 H          0.0550034497       -0.7777773358       -2.3410296259
 H         -0.4465065238       -2.4550627210       -2.5770307050
 H         -2.1961356435       -3.0189320394        0.5691643085
 H         -1.8950722181       -3.5580439645       -1.0838522644
 H         -3.0403034714       -2.2583950324       -0.7923774504
 H         -0.1487347622       -4.2196253901        0.0440506627
 H          2.0056234940       -4.9194873744        0.9507131405
 H          3.7639602923       -3.2355116503        1.4047968885
 H          3.3339956204       -0.8673379530        0.9500311981
 H          3.1340426924        0.1252507985       -1.7502591485
 H          5.0513987177        1.6804192550       -1.7646632191
 H          5.2060178851        3.4650630602       -0.0665480540
 H          3.4404654485        3.6918882912        1.6444723379
 H          1.5196554771        2.1394531902        1.6497545259
 H          0.4198395111        2.6319539404       -0.7839856558
 H         -1.8920584721        3.4691050959       -0.8214482144
 H         -4.2437483501        3.1762283514       -0.3047243193
 H         -6.0943166431        1.8398571687        0.6415639682
 H         -5.6526417517       -0.4626477146        1.4418613177
 H         -3.4160556434       -1.4132453073        1.2644217962
