  52
  -80.2361909700000       0.140230312654854      !
 C          0.0069663932       -2.3188552747        2.1855540007
 C          1.2063325454       -1.8127018608        1.7259940876
 C          1.2050449932       -0.7545418019        0.7785489747
 N          2.4112057908       -0.2676203922        0.2924028775
 C          2.7650185647        1.0637736920        0.1563889459
 C          2.0690548959        2.2026398377        0.5179791715
 C          2.6723532955        3.4368865926        0.3020716332
 C          3.9456743202        3.5227031570       -0.2577087223
 C          4.6642552229        2.3889118481       -0.5924484924
 C          4.0834734255        1.1402896207       -0.3764037740
 C          4.5310263318       -0.2007733967       -0.5616082277
 C          5.7094338769       -0.7671739703       -1.0441526611
 C          5.7972691379       -2.1456873827       -1.1288261239
 C          4.7351846169       -2.9665802677       -0.7547302132
 C          3.5517625917       -2.4257087696       -0.2621525071
 C          3.4668260478       -1.0497782600       -0.1440840091
 C         -0.0040599166       -0.2316451302        0.3349059177
 C         -1.2065811038       -0.7632943150        0.7839053398
 N         -2.4170842494       -0.2779122435        0.3054124310
 C         -2.7740220995        1.0537443379        0.1862028697
 C         -2.0868191369        2.1875736896        0.5789878207
 C         -2.6909562005        3.4235184537        0.3763652208
 C         -3.9558040375        3.5150662082       -0.2013610855
 C         -4.6661776654        2.3852393099       -0.5661970080
 C         -4.0850182043        1.1347363633       -0.3628820461
 C         -4.5260815534       -0.2052969880       -0.5726309116
 C         -5.6957497610       -0.7682777906       -1.0793634312
 C         -5.7795268034       -2.1459693440       -1.1808972775
 C         -4.7223003725       -2.9691079105       -0.7989263692
 C         -3.5468678787       -2.4318349770       -0.2839744134
 C         -3.4654321987       -1.0569787589       -0.1521970843
 C         -1.1985177843       -1.8237388260        1.7278590131
 H          0.0113435497       -3.1103148652        2.9205449121
 H          2.1456566879       -2.1694419982        2.1160811463
 H          1.0931076223        2.1443174168        0.9729058602
 H          2.1461890539        4.3382434589        0.5750096260
 H          4.3823322222        4.4971146956       -0.4212278604
 H          5.6574713772        2.4637426633       -1.0075508226
 H          6.5324225979       -0.1390149200       -1.3483670062
 H          6.7030533581       -2.5985318122       -1.5049066712
 H          4.8260060920       -4.0367942897       -0.8558308385
 H          2.7222910309       -3.0653122349       -0.0015863313
 H         -0.0094107687        0.5399806512       -0.4202738647
 H         -1.1180727388        2.1220181723        1.0484418585
 H         -2.1725974812        4.3215775546        0.6740979773
 H         -4.3935777266        4.4907322435       -0.3530476462
 H         -5.6539967686        2.4646553141       -0.9928382917
 H         -6.5149434286       -0.1381921139       -1.3897850330
 H         -6.6784719820       -2.5960327099       -1.5761733384
 H         -4.8107001400       -4.0383872519       -0.9110737380
 H         -2.7209283171       -3.0727144844       -0.0156458561
 H         -2.1341402845       -2.1906171136        2.1172976960
  52
  -80.2361872700000       0.139682339425520      !
 C          0.0029614825        0.6486095996        3.1229100232
 C          1.2064947467        0.5034927968        2.4606889481
 C          1.2099421691        0.1769315638        1.0791630285
 N          2.4182197972        0.0528629529        0.4045154661
 C          3.4652648221        0.9553783186        0.4692846041
 C          3.5478511764        2.1584862132        1.1475699902
 C          4.7207050066        2.8967120038        1.0252365397
 C          5.7741454406        2.4426897618        0.2343540261
 C          5.6893734026        1.2539944550       -0.4694512368
 C          4.5221817939        0.4993873813       -0.3686468722
 C          4.0802336197       -0.7208076729       -0.9604767788
 C          4.6582205897       -1.6293114496       -1.8456461218
 C          3.9476740265       -2.7657524017       -2.1891682036
 C          2.6858536658       -3.0229529790       -1.6566167647
 C          2.0848609982       -2.1260259205       -0.7802155002
 C          2.7722252404       -0.9705183691       -0.4570154954
 C          0.0054629100        0.0008364262        0.4099439409
 C         -1.2017762471        0.1759135626        1.0767541480
 N         -2.4094336190        0.0539237275        0.4024519206
 C         -3.4677175231        0.9416026411        0.4946789479
 C         -3.5562730689        2.1361416003        1.1872624596
 C         -4.7425946276        2.8572308039        1.0958163662
 C         -5.8041484797        2.3954620040        0.3200088129
 C         -5.7129019335        1.2181257246       -0.4014898562
 C         -4.5316831350        0.4816974260       -0.3327161255
 C         -4.0809973013       -0.7215371393       -0.9508208555
 C         -4.6598491074       -1.6226777418       -1.8431280519
 C         -3.9382373653       -2.7415467769       -2.2192604658
 C         -2.6637632499       -2.9883669184       -1.7123404555
 C         -2.0624188443       -2.0987854236       -0.8284504451
 C         -2.7613394491       -0.9602398844       -0.4717663412
 C         -1.1984978919        0.4997425616        2.4596060859
 H          0.0019602520        0.8755238707        4.1789086554
 H          2.1437411874        0.5787729217        2.9875295228
 H          2.7245875979        2.5281254571        1.7397360456
 H          4.8101616449        3.8379217305        1.5449317533
 H          6.6713651809        3.0400046479        0.1625347816
 H          6.5056964704        0.9168049354       -1.0894131545
 H          5.6436496798       -1.4487830387       -2.2466258927
 H          4.3830229861       -3.4784135666       -2.8742686324
 H          2.1678376679       -3.9308886604       -1.9228637155
 H          1.1188378825       -2.3423394923       -0.3521148835
 H          0.0077230436       -0.1984316768       -0.6512198250
 H         -2.7279450026        2.5132240922        1.7674171295
 H         -4.8367537351        3.7908993204        1.6280158475
 H         -6.7121105830        2.9787421731        0.2731181246
 H         -6.5353730463        0.8749794038       -1.0099317440
 H         -5.6541658531       -1.4494395616       -2.2249059783
 H         -4.3732732180       -3.4474436745       -2.9114529766
 H         -2.1348562220       -3.8816210240       -2.0058861216
 H         -1.0858220394       -2.3090660886       -0.4225771227
 H         -2.1361479206        0.5699594026        2.9865140209
  52
  -80.2361634700000       0.136208364225843      !
 C          0.0272488819       -2.0129478053        2.4708243429
 C          1.2264283374       -1.5875734533        1.9317935012
 C          1.2189781385       -0.6570717970        0.8602409742
 N          2.4225400053       -0.2341641280        0.3082007243
 C          2.7797493209        1.0743640649        0.0362669429
 C          2.1013652159        2.2467257120        0.3148271460
 C          2.7052837882        3.4507496855       -0.0305418465
 C          3.9604628167        3.4735845072       -0.6353934008
 C          4.6614231985        2.3077211791       -0.8884677529
 C          4.0803889402        1.0891440761       -0.5416364009
 C          4.5138871956       -0.2683058249       -0.6118231199
 C          5.6707334200       -0.8896097600       -1.0779587637
 C          5.7486347042       -2.2706287879       -1.0277534686
 C          4.6986250863       -3.0412035988       -0.5329375415
 C          3.5358592428       -2.4446433756       -0.0560351777
 C          3.4601596457       -1.0632964525       -0.0787191564
 C          0.0112614464       -0.1866534537        0.3624576740
 C         -1.1924054088       -0.6446881079        0.8878588511
 N         -2.4052365820       -0.2293957580        0.3559699088
 C         -3.4691060724       -1.0639287380        0.0564973733
 C         -3.5573108752       -2.4421356287        0.1406852571
 C         -4.7499657984       -3.0452235924       -0.2463602880
 C         -5.8182011219       -2.2840176642       -0.7169917598
 C         -5.7276471060       -0.9082939094       -0.8358026751
 C         -4.5401343849       -0.2814738422       -0.4621547789
 C         -4.0880992508        1.0702493913       -0.4848030923
 C         -4.6716047429        2.2749554970       -0.8741842090
 C         -3.9461538879        3.4433755868       -0.7251556621
 C         -2.6629146097        3.4372063036       -0.1813124107
 C         -2.0571548405        2.2466996838        0.2060327049
 C         -2.7601317545        1.0688315620        0.0306681819
 C         -1.1780981897       -1.5663059098        1.9689999999
 H          0.0337674062       -2.7008469490        3.3035245729
 H          2.1681544254       -1.9063138366        2.3479408984
 H          1.1405985732        2.2353276216        0.8051718852
 H          2.1946447356        4.3781888632        0.1769357717
 H          4.3984282692        4.4252582756       -0.8987333603
 H          5.6418327538        2.3363951959       -1.3383404950
 H          6.4847394043       -0.3019966536       -1.4735430326
 H          6.6376750418       -2.7661645162       -1.3896417802
 H          4.7827758681       -4.1167780685       -0.5261157240
 H          2.7147751996       -3.0469286168        0.3019770309
 H          0.0072909038        0.4794797436       -0.4872369778
 H         -2.7235687799       -3.0405449016        0.4750982110
 H         -4.8434282515       -4.1184420122       -0.1883190558
 H         -6.7314294666       -2.7837006183       -1.0055113237
 H         -6.5554945864       -0.3282273429       -1.2134394170
 H         -5.6720010338        2.2904184582       -1.2783250436
 H         -4.3849109317        4.3841216849       -1.0239908374
 H         -2.1306699389        4.3670921565       -0.0555612339
 H         -1.0729777222        2.2547096532        0.6464042885
 H         -2.1109391889       -1.8624301743        2.4205468475
  52
  -80.2359700600000       0.110998905276990      !
 C          0.0030755468       -2.3083751602        2.0962355923
 C          1.2039556905       -1.8082642018        1.6334810986
 C          1.2059080896       -0.7480996190        0.6881215657
 N          2.4208640320       -0.2603327916        0.2234551439
 C          2.7986683619        1.0689768211        0.1386349446
 C          2.0986964507        2.2093754785        0.4867158777
 C          2.7323027989        3.4389596844        0.3415428330
 C          4.0388117985        3.5188349359       -0.1358535147
 C          4.7584478769        2.3826102499       -0.4601117669
 C          4.1460492943        1.1387788471       -0.3167117860
 C          4.5854838504       -0.2039351160       -0.5114067181
 C          5.7817065091       -0.7764358354       -0.9396154914
 C          5.8551470679       -2.1537149104       -1.0530306758
 C          4.7617599829       -2.9670684273       -0.7616377037
 C          3.5599080459       -2.4202662804       -0.3239142162
 C          3.4882156306       -1.0463377418       -0.1755159705
 C          0.0000976623       -0.2218184506        0.2403884871
 C         -1.2053507894       -0.7477294053        0.6921510664
 N         -2.4213927230       -0.2652196926        0.2267218981
 C         -2.7977006872        1.0630695099        0.1186841825
 C         -2.0969506899        2.2092164942        0.4457673760
 C         -2.7283049062        3.4367496053        0.2754561571
 C         -4.0339711518        3.5094683761       -0.2058681253
 C         -4.7553075883        2.3682160613       -0.5074896147
 C         -4.1454435868        1.1263623141       -0.3376416190
 C         -4.5869969253       -0.2186417158       -0.5074547051
 C         -5.7854408150       -0.7967522518       -0.9220793537
 C         -5.8614021384       -2.1755882004       -1.0113336387
 C         -4.7679916772       -2.9854060941       -0.7100336989
 C         -3.5641191437       -2.4327787407       -0.2851373250
 C         -3.4902711239       -1.0567979824       -0.1586151643
 C         -1.1987939835       -1.8052539011        1.6409980029
 H          0.0043760595       -3.0986139258        2.8324297946
 H          2.1425725082       -2.1685966187        2.0218391475
 H          1.0963153597        2.1554247098        0.8804866892
 H          2.2037579452        4.3411768283        0.6071225359
 H          4.5006629423        4.4895697435       -0.2415086327
 H          5.7767993252        2.4516687357       -0.8101251895
 H          6.6297720510       -0.1541410554       -1.1804995266
 H          6.7748045735       -2.6112042126       -1.3875547933
 H          4.8435933541       -4.0357983521       -0.8842531303
 H          2.7078321669       -3.0525113080       -0.1251812254
 H         -0.0005178053        0.5477759558       -0.5167296044
 H         -1.0951385437        2.1623046528        0.8417619004
 H         -2.1984478905        4.3432276181        0.5231836517
 H         -4.4931531659        4.4788430073       -0.3337287316
 H         -5.7727804009        2.4319235295       -0.8612186740
 H         -6.6334741798       -0.1774755310       -1.1705076050
 H         -6.7829870400       -2.6375365556       -1.3342153461
 H         -4.8513011317       -4.0558758174       -0.8148079048
 H         -2.7120540945       -3.0630255892       -0.0802552524
 H         -2.1355426696       -2.1620134170        2.0371647932
  52
  -80.2358684300000       9.968109071566317E-002 !
 C          0.0094475822       -2.2824061959        2.2849186244
 C          1.2059294316       -1.7683445603        1.8312388311
 C          1.2054043864       -0.7283465919        0.8636143699
 N          2.4044680399       -0.2616756178        0.3462203904
 C          2.7421421916        1.0616909449        0.1191383334
 C          2.0513461472        2.2163716170        0.4391599566
 C          2.6336130732        3.4388568664        0.1206498959
 C          3.8812375398        3.4976908780       -0.4988810254
 C          4.5962604751        2.3503875340       -0.7920744281
 C          4.0380330247        1.1134200413       -0.4718921641
 C          4.4882752233       -0.2327580362       -0.5959869596
 C          5.6494320136       -0.8201208689       -1.0965200154
 C          5.7430807658       -2.2007960640       -1.1097555402
 C          4.7036894619       -3.0050635045       -0.6462698578
 C          3.5378908228       -2.4426383618       -0.1346366467
 C          3.4479072603       -1.0630449106       -0.0878779615
 C         -0.0083547248       -0.2145636766        0.4144867234
 C         -1.2048406032       -0.7526883309        0.8615460948
 N         -2.4136405624       -0.2707817282        0.3668087947
 C         -2.7892022493        1.0572364721        0.2966693695
 C         -2.1454601378        2.1763685677        0.7925910415
 C         -2.7643921208        3.4107970139        0.6285171893
 C         -3.9954858083        3.5134044859       -0.0159449194
 C         -4.6586669730        2.3955484245       -0.4920216212
 C         -4.0645177873        1.1456921714       -0.3276949583
 C         -4.4604054160       -0.1898441369       -0.6415590982
 C         -5.5754613626       -0.7474783808       -1.2634920624
 C         -5.6172750490       -2.1195917143       -1.4443881125
 C         -4.5748224630       -2.9422494379       -1.0239243614
 C         -3.4536461396       -2.4111928489       -0.3946732232
 C         -3.4125377450       -1.0427249694       -0.1952028273
 C         -1.1992336414       -1.8090425786        1.8063581244
 H          0.0153572172       -3.0650638895        3.0292360840
 H          2.1448992535       -2.1078407256        2.2375913474
 H          1.0944699294        2.1820143486        0.9355532253
 H          2.1109675275        4.3520460754        0.3585243034
 H          4.3007377635        4.4628708820       -0.7425384260
 H          5.5693533458        2.4056816460       -1.2551540752
 H          6.4540059904       -0.2059310136       -1.4704007614
 H          6.6350330449       -2.6694181513       -1.4993585239
 H          4.7971335869       -4.0788237321       -0.6921089601
 H          2.7242612914       -3.0720727887        0.1919999129
 H         -0.0200685959        0.5524208052       -0.3454149108
 H         -1.2005401300        2.0956246344        1.3078422266
 H         -2.2840335164        4.2993262156        1.0078852222
 H         -4.4450760840        4.4884050209       -0.1353519934
 H         -5.6204559030        2.4845724543       -0.9731810629
 H         -6.3838073409       -0.1185211982       -1.6032254767
 H         -6.4723145610       -2.5647930599       -1.9318474928
 H         -4.6317826947       -4.0059790392       -1.1951723536
 H         -2.6367628139       -3.0472627167       -0.0890769613
 H         -2.1357713511       -2.1921617283        2.1776574868
  52
  -80.2356107900000       7.589438313637893E-002 !
 C          0.0033089727        2.3934107933        2.0948369620
 C          1.2006267454        1.9594179652        1.5619517009
 C          1.2026452351        0.8879278444        0.6284115461
 N          2.4085693028        0.4206511019        0.1225302364
 C          3.4363723736        1.2106620129       -0.3618454394
 C          3.4861822892        2.5832088108       -0.5304598125
 C          4.6407472003        3.1313192926       -1.0797256952
 C          5.7088224284        2.3208016770       -1.4595000020
 C          5.6553425478        0.9447371603       -1.3232411675
 C          4.5073797486        0.3707633646       -0.7802013965
 C          4.0955851600       -0.9726024166       -0.5361266667
 C          4.6975414892       -2.2150787364       -0.7266493095
 C          4.0134416439       -3.3513805880       -0.3325544772
 C          2.7536282175       -3.2732893003        0.2580869187
 C          2.1267454696       -2.0462027246        0.4483837904
 C          2.7898728495       -0.9063713397        0.0288104943
 C          0.0008883829        0.2934402544        0.2669077263
 C         -1.2001075493        0.7363023540        0.8059299508
 N         -2.4071766660        0.1764151662        0.4088869309
 C         -3.4421602014       -0.1871880009        1.2525903303
 C         -3.5012345608       -0.1613738775        2.6348619269
 C         -4.6631356937       -0.6203592858        3.2468401563
 C         -5.7293260255       -1.1032937217        2.4905374496
 C         -5.6667626278       -1.1621563194        1.1094287432
 C         -4.5116320301       -0.7123108436        0.4726383347
 C         -4.0916726331       -0.6598030178       -0.8891807932
 C         -4.6888964583       -1.0173760334       -2.0966663212
 C         -3.9977962264       -0.7866372616       -3.2729754991
 C         -2.7356598027       -0.1958719397       -3.2705815809
 C         -2.1132386437        0.1586664058       -2.0781230457
 C         -2.7830812471       -0.0977079380       -0.8946536492
 C         -1.1953449252        1.8082950466        1.7389369015
 H          0.0042640867        3.2080623656        2.8041579153
 H          2.1386381430        2.3797351743        1.8856671023
 H          2.6521593303        3.2143397196       -0.2638749397
 H          4.7046472942        4.1992074888       -1.2196161534
 H          6.5912853098        2.7794771985       -1.8810836243
 H          6.4808565969        0.3237790698       -1.6352925501
 H          5.6799153866       -2.2835466614       -1.1678615108
 H          4.4677338520       -4.3213300118       -0.4729913909
 H          2.2560823578       -4.1760357118        0.5765681144
 H          1.1610766512       -1.9942620507        0.9274581758
 H          0.0000378902       -0.5211361735       -0.4413168776
 H         -2.6689616055        0.1853533311        3.2281993920
 H         -4.7343959727       -0.6080668399        4.3233066921
 H         -6.6178708362       -1.4496972700        2.9978388342
 H         -6.4908396005       -1.5530655367        0.5328473459
 H         -5.6731644857       -1.4594332446       -2.1087432284
 H         -4.4486459957       -1.0568764703       -4.2166395391
 H         -2.2330154545       -0.0055691191       -4.2060137358
 H         -1.1459623618        0.6371556017       -2.0880425979
 H         -2.1322557004        2.1892597481        2.1108808493
  52
  -80.2356006900000       7.508756082972835E-002 !
 C          0.1162695417       -1.0385082185        2.9877231532
 C          1.2872442879       -0.9250586447        2.2656992605
 C          1.2396876537       -0.4576690655        0.9247369661
 N          2.4214943531       -0.2960536031        0.2134966276
 C          2.7760913734        0.8169784046       -0.5286757491
 C          2.1020140831        2.0131055975       -0.7006595651
 C          2.7032841112        2.9946351471       -1.4821044924
 C          3.9483216663        2.7803741007       -2.0701966236
 C          4.6434278452        1.5992001843       -1.8791684542
 C          4.0678991170        0.6049471179       -1.0898883636
 C          4.4992974934       -0.6830575294       -0.6556790116
 C          5.6465594138       -1.4425460871       -0.8777998982
 C          5.7236564489       -2.7071289994       -0.3211131973
 C          4.6797387104       -3.2329130841        0.4377792170
 C          3.5263326095       -2.4931111883        0.6779848169
 C          3.4534487894       -1.2158203074        0.1507573672
 C          0.0154358369       -0.1251347286        0.3587057110
 C         -1.1582606447       -0.2427613278        1.0912247369
 N         -2.3902916717        0.0440236226        0.5169133598
 C         -3.3977066752        0.7844098207        1.1092677884
 C         -3.3945395960        1.4678827523        2.3124989715
 C         -4.5409283286        2.1726835977        2.6647305238
 C         -5.6528574648        2.1983587354        1.8252125385
 C         -5.6535105016        1.5428424532        0.6063746391
 C         -4.5148281807        0.8341659713        0.2278870474
 C         -4.1527233045        0.0936359677       -0.9360552028
 C         -4.8126990256       -0.2210554954       -2.1225829249
 C         -4.1658988177       -1.0184263293       -3.0503866219
 C         -2.8857753468       -1.5159242904       -2.8149237778
 C         -2.2011242200       -1.2061051789       -1.6441063317
 C         -2.8289186869       -0.3863545243       -0.7229519012
 C         -1.1037283597       -0.7074312040        2.4327094436
 H          0.1551678662       -1.3931329431        4.0072355468
 H          2.2428922894       -1.1287976360        2.7202226123
 H          1.1478709704        2.1966679508       -0.2309125595
 H          2.1978778096        3.9362892542       -1.6292876624
 H          4.3833397719        3.5612278933       -2.6767640800
 H          5.6148968419        1.4485455003       -2.3242080778
 H          6.4531282737       -1.0503271265       -1.4778293190
 H          6.6059391436       -3.3079369800       -0.4866743054
 H          4.7614024320       -4.2308491376        0.8395030707
 H          2.7105598276       -2.9164828997        1.2439660788
 H         -0.0238602998        0.2274234396       -0.6608350322
 H         -2.5270274425        1.4731596878        2.9547027102
 H         -4.5641230748        2.7127921109        3.5984114337
 H         -6.5279408575        2.7530381867        2.1309756855
 H         -6.5139761404        1.5812885296       -0.0437138582
 H         -5.8105354195        0.1465257953       -2.3061829040
 H         -4.6661410111       -1.2730017495       -3.9733382900
 H         -2.4181054583       -2.1552709054       -3.5472604643
 H         -1.2190585848       -1.6141020657       -1.4602661699
 H         -2.0213468899       -0.8514805901        2.9791788093
  52
  -80.2355976300000       7.484481481232941E-002 !
 C         -0.1122485153       -1.0584705264        3.0094631527
 C          1.1075130615       -0.7249724005        2.4550926577
 C          1.1605858832       -0.2558698183        1.1150923709
 N          2.3885194715        0.0350263424        0.5348800798
 C          3.3986458135        0.7799843493        1.1171278841
 C          3.4117024512        1.4493596985        2.3281504370
 C          4.5556091591        2.1658431532        2.6648180253
 C          5.6495398049        2.2165787769        1.8029878341
 C          5.6338982955        1.5744874727        0.5772740472
 C          4.4973803902        0.8541799900        0.2142977281
 C          4.1212970337        0.1242772669       -0.9518471047
 C          4.7596093775       -0.1642902553       -2.1568159914
 C          4.1034109535       -0.9562938862       -3.0824130338
 C          2.8358355714       -1.4755560711       -2.8265143379
 C          2.1728080722       -1.1921982998       -1.6369318944
 C          2.8083217018       -0.3754170410       -0.7183019954
 C         -0.0144961259       -0.1363669057        0.3850880824
 C         -1.2381260423       -0.4716007234        0.9499970587
 N         -2.4175376781       -0.3064688648        0.2357301054
 C         -2.7598343539        0.8056758579       -0.5134924098
 C         -2.0817567012        2.0006766578       -0.6779649332
 C         -2.6682999043        2.9797527576       -1.4732940697
 C         -3.9035807110        2.7648380420       -2.0815717248
 C         -4.6035958778        1.5855886204       -1.8973251673
 C         -4.0425249477        0.5935482866       -1.0949584418
 C         -4.4814143222       -0.6935277928       -0.6653763684
 C         -5.6242422182       -1.4535721040       -0.9072729688
 C         -5.7101646536       -2.7183448433       -0.3524146749
 C         -4.6793497176       -3.2432075473        0.4247585506
 C         -3.5307111389       -2.5027810800        0.6849931092
 C         -3.4488865433       -1.2257024246        0.1584947060
 C         -1.2844908662       -0.9438851933        2.2891815501
 H         -0.1500325134       -1.4175061596        4.0275206553
 H          2.0252551624       -0.8699574250        3.0010808534
 H          2.5577958890        1.4363970020        2.9881983903
 H          4.5909930927        2.6953476391        3.6042370684
 H          6.5225528340        2.7810825835        2.0963393339
 H          6.4792083689        1.6333982894       -0.0909253981
 H          5.7481581821        0.2195835314       -2.3563446014
 H          4.5864311213       -1.1899490707       -4.0198358509
 H          2.3606434556       -2.1102532434       -3.5580594569
 H          1.2013714732       -1.6180495434       -1.4374722286
 H          0.0234369751        0.2212899688       -0.6326744599
 H         -1.1356563603        2.1854320551       -0.1926796247
 H         -2.1581772887        3.9195004237       -1.6168330925
 H         -4.3266850031        3.5434550524       -2.6990682910
 H         -5.5677680201        1.4345836828       -2.3574262813
 H         -6.4201430420       -1.0616797186       -1.5215605989
 H         -6.5889094132       -3.3199202162       -0.5334255813
 H         -4.7678444386       -4.2410253320        0.8256803780
 H         -2.7246626623       -2.9261213461        1.2645780813
 H         -2.2392187790       -1.1509590857        2.7440167326
  52
  -80.2354389500000       6.327577007443862E-002 !
 C          0.0068890497       -2.2964151516        2.1704523005
 C          1.2002789826       -1.7600719365        1.7405507608
 C          1.2069989780       -0.7363685168        0.7528384620
 N          2.4124327837       -0.2666200019        0.2593791844
 C          2.7411243496        1.0522618829       -0.0164126289
 C          2.0077309801        2.2097373049        0.1719550012
 C          2.5918574468        3.4243251479       -0.1734556413
 C          3.8868041356        3.4766087461       -0.6875150385
 C          4.6445450543        2.3307449364       -0.8453269161
 C          4.0827857918        1.1025088315       -0.4982895203
 C          4.5714970228       -0.2343253718       -0.5024755825
 C          5.7903428582       -0.8137366686       -0.8536128077
 C          5.9192042125       -2.1888199170       -0.7767198614
 C          4.8559374519       -2.9967832170       -0.3762235934
 C          3.6323473379       -2.4412553634       -0.0143131376
 C          3.5066412551       -1.0636048749       -0.0438493941
 C         -0.0109394342       -0.2429507417        0.2823272851
 C         -1.2041764961       -0.7850382078        0.7277589783
 N         -2.4197651753       -0.2803517883        0.2680014731
 C         -2.8108264697        1.0442790858        0.3168660956
 C         -2.1433000539        2.1353676093        0.8428349495
 C         -2.7866606401        3.3677084999        0.8161745375
 C         -4.0644777481        3.4961088958        0.2773770692
 C         -4.7483051566        2.4048092772       -0.2303716198
 C         -4.1276623100        1.1577070254       -0.2065939560
 C         -4.5327887916       -0.1591263307       -0.5853062676
 C         -5.6853496513       -0.6890455848       -1.1600501885
 C         -5.7286445946       -2.0469496414       -1.4273314710
 C         -4.6511663959       -2.8812113932       -1.1386164565
 C         -3.4922250126       -2.3785163614       -0.5575614047
 C         -3.4487239673       -1.0249785066       -0.2723930975
 C         -1.2017134718       -1.8459907171        1.6663663800
 H          0.0123919786       -3.0732546481        2.9207936076
 H          2.1338483321       -2.0668193680        2.1835491528
 H          1.0139334861        2.1911647781        0.5891625273
 H          2.0322952573        4.3366291991       -0.0387185208
 H          4.3074292168        4.4348419619       -0.9552725210
 H          5.6530111629        2.3795632479       -1.2261820216
 H          6.6131605058       -0.1966295725       -1.1800201068
 H          6.8572866194       -2.6517693104       -1.0462219487
 H          4.9776829514       -4.0684337003       -0.3540605465
 H          2.8043409392       -3.0785288520        0.2559248293
 H         -0.0274779871        0.5151280706       -0.4857531363
 H         -1.1627601349        2.0325996058        1.2820898742
 H         -2.2892392661        4.2340333960        1.2240056096
 H         -4.5346056924        4.4685792779        0.2688830350
 H         -5.7458271254        2.5114717071       -0.6278388818
 H         -6.5226949329       -0.0505204305       -1.3957328780
 H         -6.6139814341       -2.4710583534       -1.8780823552
 H         -4.7126194844       -3.9322839014       -1.3746589622
 H         -2.6507572973       -3.0218517605       -0.3490092763
 H         -2.1391469584       -2.2439351883        2.0190653787
  52
  -80.2351915000000       4.869869159561945E-002 !
 C          0.0322947550        2.1533244296        2.2945487542
 C          1.2242628397        1.7734271239        1.7071203790
 C          1.2181741258        0.7629032212        0.7115009927
 N          2.4238820156        0.3539822687        0.1489558999
 C          3.3837744046        1.1993032611       -0.3749915074
 C          3.3479923004        2.5735741375       -0.5318444287
 C          4.4382830757        3.1866583098       -1.1406743676
 C          5.5259057701        2.4374865588       -1.5839319634
 C          5.5600752762        1.0600688163       -1.4482159365
 C          4.4781358664        0.4211293873       -0.8457877536
 C          4.1542003871       -0.9436048470       -0.5811226826
 C          4.8201208951       -2.1510869205       -0.7818884527
 C          4.2168605397       -3.3205976327       -0.3523227987
 C          2.9727691100       -3.3108276849        0.2748820199
 C          2.2817155734       -2.1203018601        0.4758725547
 C          2.8704705009       -0.9485842000        0.0342471249
 C          0.0200539348        0.1791371262        0.3293013888
 C         -1.1793072517        0.5864380497        0.9045706584
 N         -2.3935839913        0.0873918257        0.4530030247
 C         -3.4553092608       -0.2977253402        1.2515026129
 C         -3.5218246925       -0.4143988176        2.6286646007
 C         -4.7161472224       -0.8570957999        3.1886664810
 C         -5.8074678482       -1.1820551506        2.3843794329
 C         -5.7393176909       -1.0997424872        1.0047155247
 C         -4.5507245214       -0.6673236305        0.4185664568
 C         -4.1176411537       -0.4977618936       -0.9287840495
 C         -4.7286587326       -0.6811931889       -2.1685240853
 C         -4.0162234756       -0.3676247590       -3.3128763519
 C         -2.7181274249        0.1341258456       -3.2467712373
 C         -2.0817698329        0.3143317520       -2.0219494895
 C         -2.7753747685       -0.0234061667       -0.8737254807
 C         -1.1653941226        1.5835296820        1.9164521407
 H          0.0383195986        2.9158442105        3.0594554602
 H          2.1640209354        2.1922133862        2.0283119683
 H          2.4965933738        3.1536460528       -0.2093385612
 H          4.4352800866        4.2568533040       -1.2776704098
 H          6.3554237985        2.9453636810       -2.0539343694
 H          6.4017474054        0.4884098923       -1.8076646147
 H          5.7893850291       -2.1683029148       -1.2558554425
 H          4.7243074176       -4.2633983450       -0.4957342655
 H          2.5395639329       -4.2383632642        0.6155228592
 H          1.3257664960       -2.1150840687        0.9772364141
 H          0.0184223754       -0.5947783341       -0.4236434717
 H         -2.6722745006       -0.1870989555        3.2546263586
 H         -4.7945321080       -0.9550810249        4.2601499087
 H         -6.7221133821       -1.5161659092        2.8521150907
 H         -6.5850009939       -1.3678388024        0.3904738342
 H         -5.7399810694       -1.0525973975       -2.2285757186
 H         -4.4783909066       -0.5008001851       -4.2801596033
 H         -2.1974880159        0.3922596134       -4.1556507245
 H         -1.0849140910        0.7256470571       -1.9805302652
 H         -2.0991492802        1.9270482715        2.3307920799
  52
  -80.2348900400000       3.539776725263399E-002 !
 C         -0.0977897484       -1.0675810457        2.9924677140
 C          1.1158889856       -0.6982273692        2.4441540420
 C          1.1648477336       -0.2598063983        1.0980521521
 N          2.3933664668        0.0334175270        0.5108688475
 C          3.3512827139        0.8838772141        1.0261992443
 C          3.2984472390        1.6764764469        2.1588988395
 C          4.3914213053        2.4939271706        2.4307416843
 C          5.4988441567        2.5127465206        1.5855939553
 C          5.5524826593        1.7333531628        0.4421983857
 C          4.4675781194        0.9112883301        0.1428554750
 C          4.1586914786        0.0294892919       -0.9359064048
 C          4.8448513341       -0.3824952284       -2.0771671671
 C          4.2476895731       -1.3134322547       -2.9104838913
 C          2.9898732169       -1.8426216610       -2.6305367692
 C          2.2778574776       -1.4373787029       -1.5054072530
 C          2.8616394501       -0.4964589805       -0.6761422032
 C         -0.0064856813       -0.1663550500        0.3608050985
 C         -1.2264285918       -0.5121624687        0.9293717951
 N         -2.4100871327       -0.3295856340        0.2221062027
 C         -2.7784011320        0.8347996320       -0.4270530860
 C         -2.1159055918        2.0470593106       -0.4958125756
 C         -2.7336100370        3.0885949892       -1.1826534601
 C         -3.9787723692        2.9111515508       -1.7816039109
 C         -4.6573728257        1.7068983139       -1.7005651604
 C         -4.0669840683        0.6523615029       -1.0051596241
 C         -4.4777224976       -0.6746926440       -0.6825853064
 C         -5.6083067420       -1.4362988078       -0.9741924999
 C         -5.6623345214       -2.7438709546       -0.5223909484
 C         -4.6163690866       -3.3090106976        0.2048999194
 C         -3.4801171576       -2.5679708815        0.5162950722
 C         -3.4266498575       -1.2545742870        0.0849372475
 C         -1.2668600804       -0.9934764704        2.2619852118
 H         -0.1323841368       -1.4186886005        4.0132534976
 H          2.0324476919       -0.7887301266        3.0042401563
 H          2.4332089071        1.6752874598        2.8045232072
 H          4.3760870342        3.1255077307        3.3053789862
 H          6.3307190000        3.1585727490        1.8265024398
 H          6.4109598126        1.7651083713       -0.2107458119
 H          5.8248247262        0.0114126323       -2.2980154640
 H          4.7712440468       -1.6466386859       -3.7947497030
 H          2.5610414017       -2.5798959956       -3.2911625750
 H          1.3091665197       -1.8588686233       -1.2831407437
 H          0.0299403437        0.1783062868       -0.6621906134
 H         -1.1589254073        2.1940416126       -0.0184841394
 H         -2.2406530941        4.0460362990       -1.2463597776
 H         -4.4274484397        3.7383447770       -2.3121506118
 H         -5.6275122799        1.5853861162       -2.1569399500
 H         -6.4189567226       -1.0134280302       -1.5472188842
 H         -6.5307195113       -3.3465351994       -0.7454310937
 H         -4.6835024749       -4.3365595294        0.5265415007
 H         -2.6630208112       -3.0130828865        1.0636725082
 H         -2.2178001649       -1.2399189991        2.7057725625
