  120
       -173.81566851
 C         -2.5404499375       -5.8707986299        1.3030909822
 C         -1.4119188974       -4.9371761954        0.9873881153
 C         -0.1040709342       -5.4258608978        0.9008298838
 C          0.9588262230       -4.5845299077        0.6084079432
 C          0.6976778422       -3.2497174764        0.3552843924
 C         -0.6275369958       -2.7200989874        0.4635987826
 C         -1.6657674977       -3.5916678077        0.7950677282
 C         -0.5362654187       -1.3106841709        0.2900750295
 C         -1.4422733404       -0.2250816367        0.1830922785
 C         -0.8520034836        1.0289397608        0.1607257069
 C          0.5371322823        1.3208851849        0.2801643218
 C          1.4432034655        0.2344330876        0.1812364090
 C          0.8525704880       -1.0198423496        0.1693655155
 N          1.5619630862       -2.2010978693        0.1016569103
 C          2.8693128473       -2.1938233977       -0.3327464359
 C          3.4973706348       -3.3317642787       -0.8439680082
 C          4.8125268591       -3.2968391446       -1.2551768589
 C          5.5532845755       -2.1212774536       -1.1839177420
 C          7.0120498512       -2.0219899110       -1.5898604005
 C          7.5888740525       -3.3658431775       -2.0411621377
 C          7.1417323997       -1.0257070004       -2.7507072776
 C          7.8283565663       -1.5254423522       -0.3883103290
 C          4.8965074354       -0.9786664342       -0.7409306326
 C          3.5724955826       -0.9787010988       -0.3401195292
 C          2.9370543245        0.3305368861        0.1062979422
 C          3.6069764517        0.6879910532        1.4245979004
 C          3.4445727798        0.0936316829        2.6530035977
 C          4.2228593208        0.5442636591        3.7141047649
 C          5.1468645780        1.5629212327        3.5328027985
 C          5.3117323466        2.1646554112        2.2963111994
 C          4.5357334674        1.7247409777        1.2337779721
 C          4.4438132298        2.1838877476       -0.1412130449
 C          5.1096209440        3.1970634155       -0.8151101939
 C          4.7638361648        3.4555634754       -2.1314369713
 C          3.7740293281        2.7214088913       -2.7673390405
 C          3.1145958524        1.6918929070       -2.1031642017
 C          3.4519495280        1.4327103085       -0.7969948226
 C          0.6274540484        2.7312006478        0.4457216500
 C          1.6656324895        3.6048128488        0.7748680861
 C          1.4108755957        4.9500377343        0.9616003864
 C          2.5295182432        5.8912510298        1.2894812739
 C          0.1022238287        5.4383795218        0.8699096232
 C         -0.9595005268        4.5962459207        0.5785275354
 C         -0.6977969449        3.2598462171        0.3328707809
 N         -1.5616379654        2.2095063547        0.0842235371
 C         -2.8712011029        2.1986860539       -0.3433853893
 C         -3.5044838878        3.3337860092       -0.8548852197
 C         -4.8231119402        3.2964610166       -1.2545323864
 C         -5.5632439904        2.1212164325       -1.1709848812
 C         -7.0273947851        2.0212618532       -1.5569009517
 C         -7.8287078348        1.5512441594       -0.3345124382
 C         -7.6038588958        3.3594506899       -2.0252233661
 C         -7.1788659455        1.0042837066       -2.6970457584
 C         -4.9015276513        0.9807730044       -0.7299756563
 C         -3.5739117239        0.9831450553       -0.3413367475
 C         -2.9351033652       -0.3262820696        0.0987734781
 C         -3.6179274664       -0.7035290843        1.4044957388
 C         -3.4763419027       -0.1209830631        2.6411060506
 C         -4.2658531892       -0.5877196138        3.6868786717
 C         -5.1808169057       -1.6101943073        3.4825928684
 C         -5.3247961785       -2.2002862702        2.2379181559
 C         -4.5371222389       -1.7446018746        1.1906922678
 C         -4.4227222535       -2.1902822814       -0.1872079035
 C         -5.0656979591       -3.2068732187       -0.8778448848
 C         -4.6976712197       -3.4512179334       -2.1907895539
 C         -3.7090420311       -2.6992548802       -2.8074957027
 C         -3.0722241593       -1.6667974438       -2.1262688575
 C         -3.4310949871       -1.4224970020       -0.8229788767
 H         -2.8956423961       -6.3439794001        0.3865878965
 H         -2.2193906884       -6.6568572420        1.9832287700
 H         -3.3731935980       -5.3316928059        1.7484838664
 H          0.0870962976       -6.4700869077        1.0963738954
 H          1.9630368298       -4.9753531778        0.6332785248
 H         -2.6629196956       -3.2231657964        0.9358866053
 H          2.9351949552       -4.2420230689       -0.9591980784
 H          5.2483142813       -4.2029726071       -1.6414368936
 H          7.0678389623       -3.7394671130       -2.9192244552
 H          7.5234631394       -4.1040489468       -1.2456585702
 H          8.6379623953       -3.2417488467       -2.3007031134
 H          8.1811863937       -0.9470667483       -3.0610179659
 H          6.7936917404       -0.0374830906       -2.4643757912
 H          6.5515675838       -1.3610688631       -3.6007740203
 H          7.7263871603       -2.2161253624        0.4459010277
 H          7.4935134218       -0.5455780731       -0.0612010973
 H          8.8808209036       -1.4571229352       -0.6540429907
 H          5.4347613805       -0.0460247157       -0.7118673417
 H          2.7262981069       -0.7010056123        2.7957021281
 H          4.1075705566        0.0943833903        4.6889587838
 H          5.7435573445        1.8938006827        4.3703479959
 H          6.0283473839        2.9621876180        2.1638928462
 H          5.8782234967        3.7761062703       -0.3241902167
 H          5.2695593359        4.2438476231       -2.6699208026
 H          3.5155662787        2.9482419022       -3.7909784761
 H          2.3513050362        1.1134540366       -2.6035192575
 H          2.6624887751        3.2359351908        0.9174520148
 H          2.2743600562        6.5093778510        2.1488720750
 H          3.4433814626        5.3440721224        1.5063022411
 H          2.7177257373        6.5562929144        0.4462620149
 H         -0.0879926002        6.4837067127        1.0604401222
 H         -1.9636181166        4.9874827681        0.5985858924
 H         -2.9441980720        4.2439389510       -0.9794265175
 H         -5.2624374566        4.2007898712       -1.6409284933
 H         -8.8849831824        1.4810078160       -0.5840629832
 H         -7.4915017248        0.5770670126        0.0070308501
 H         -7.7130133806        2.2578780110        0.4844408559
 H         -7.5295496287        4.1108655102       -1.2429093144
 H         -7.0888891871        3.7163430832       -2.9138322054
 H         -8.6555188026        3.2345796091       -2.2737378253
 H         -8.2222784110        0.9307747625       -2.9951976777
 H         -6.5940890176        1.3172579133       -3.5593253278
 H         -6.8387134519        0.0177738411       -2.3958755032
 H         -5.4387024464        0.0477765556       -0.6915357487
 H         -2.7659948965        0.6773971800        2.8014714131
 H         -4.1670201346       -0.1471908843        4.6677786896
 H         -5.7867321110       -1.9533409193        4.3085468036
 H         -6.0337354250       -3.0014516140        2.0872808121
 H         -5.8324480224       -3.8003576297       -0.4016602216
 H         -5.1850679225       -4.2421388163       -2.7422171220
 H         -3.4329358729       -2.9151914726       -3.8288936510
 H         -2.3077479602       -1.0762652920       -2.6105269502
