120
 energy: -173.960204047068 gnorm: 0.000029923450 xtb: 6.7.1 (edcfbbe)
C           -2.57475207442431       -5.85128928515080        1.32292085115225
C           -1.43922039167267       -4.92542989991499        1.00129293156831
C           -0.13291633666486       -5.40815242856491        0.94334050265582
C            0.93462761188554       -4.58215090142952        0.65042122080365
C            0.68467659762385       -3.24589474626641        0.37103602241231
C           -0.63295822911465       -2.72642336765209        0.44784323943102
C           -1.67760571124497       -3.57979786931593        0.77499793069416
C           -0.53919650083184       -1.29736196276463        0.26001686550793
C           -1.43904372982722       -0.23070066891790        0.17224925933939
C           -0.85114939261800        1.02466476692662        0.15757639407487
C            0.53856536649071        1.29938984548567        0.25597338418583
C            1.43839462487518        0.23247305236426        0.17133130316914
C            0.85051244577220       -1.02292830325487        0.16060558265688
N            1.56351598035276       -2.20901639043392        0.12940022127349
C            2.88311394782236       -2.20569319040417       -0.29900203331022
C            3.51328353017360       -3.34672952012893       -0.78685067950029
C            4.83487135598826       -3.32122972171645       -1.18696259863985
C            5.57587532403216       -2.14881584230854       -1.12916167169807
C            7.04029864750950       -2.06026011438650       -1.52797124608253
C            7.62179212879934       -3.42043909486746       -1.92552938731331
C            7.17532727410333       -1.10949160898807       -2.72673622088303
C            7.85332731975716       -1.52000440516498       -0.34226057560471
C            4.91216924161685       -1.00182301603520       -0.70850994928765
C            3.58337659964309       -0.99545601631875       -0.31599854344814
C            2.94224185373395        0.33032827231927        0.10095914885841
C            3.62645451014185        0.72902928463986        1.39459786562756
C            3.48123214643097        0.18184134867779        2.64976668544132
C            4.28391250338996        0.65989848462818        3.67810557873826
C            5.22130046008889        1.65430716528632        3.44410036014850
C            5.37027217539967        2.20890706949572        2.18214845710219
C            4.56435558967352        1.74608405614582        1.15543810158228
C            4.44871175181951        2.16538603236381       -0.23688499365596
C            5.10345636884925        3.15567645771852       -0.94952497587312
C            4.73254446268801        3.37862933058476       -2.26702407246930
C            3.73067435221979        2.62744010555592       -2.86162572410937
C            3.08269068190507        1.62019286483580       -2.15693107502296
C            3.44306747159849        1.39820755477522       -0.84749716474880
C            0.63241896433393        2.72904646146075        0.43916962541779
C            1.67715622060023        3.58340652290850        0.76346632816931
C            1.43888261243180        4.92978835109432        0.98534915122655
C            2.57445246182801        5.85666709737512        1.30385850385697
C            0.13259217995707        5.41238353449877        0.92596233052492
C           -0.93504235255600        4.58548544338931        0.63593484608356
C           -0.68520805646689        3.24830362583029        0.36088873465369
N           -1.56410796511496        2.21067405214376        0.12273095100992
C           -2.88382196872357        2.20604879028577       -0.30527966860062
C           -3.51400992487902        3.34554245162350       -0.79669146100263
C           -4.83569731842489        3.31886256749288       -1.19637604331530
C           -5.57680730059115        2.14672295694380       -1.13449643970928
C           -7.04131112590145        2.05702768004164       -1.53274872356314
C           -7.85428853315637        1.52145473121341       -0.34488188168261
C           -7.62251343990091        3.41584942644933       -1.93535135084807
C           -7.17676534305681        1.10181610031806       -2.72793176126614
C           -4.91312255095890        1.00106103725759       -0.71018304761731
C           -3.58419589314618        0.99582382682090       -0.31808565762766
C           -2.94292655336306       -0.32872530611859        0.10261457450377
C           -3.62652557773603       -0.72374053988846        1.39770133418706
C           -3.48060701390093       -0.17305944693822        2.65126126006252
C           -4.28256090807783       -0.64840508300191        3.68142142110510
C           -5.21993867472821       -1.64360203098820        3.45074904981660
C           -5.36967186597359       -2.20164934089149        2.19040847554401
C           -4.56445345947280       -1.74155612660475        1.16192316353705
C           -4.44956685928776       -2.16472115907467       -0.22929243962371
C           -5.10486725910831       -3.15684434936193       -0.93886130912769
C           -4.73481759428204       -3.38336537938102       -2.25599338949163
C           -3.73318093602502       -2.63393959362374       -2.85321410574335
C           -3.08462283167131       -1.62489486683556       -2.15162293605560
C           -3.44419581003528       -1.39931339404066       -0.84257236329047
H           -2.23923766930094       -6.67579220655144        1.94830214057291
H           -3.37168584781765       -5.31902907985928        1.83688778574880
H           -2.98565253327586       -6.26988753162249        0.40298734890761
H            0.05505605098355       -6.45015534464471        1.16052031778234
H            1.93705428081720       -4.97609264639970        0.69257232801836
H           -2.67647834401317       -3.20200613632704        0.88768544100750
H            2.95665746621633       -4.26281187751160       -0.88647598310741
H            5.27029877066479       -4.23730289003852       -1.55055217276159
H            7.11266520388706       -3.82412224635036       -2.79771759674002
H            7.54585619355775       -4.13168091866802       -1.10609103990253
H            8.67459377242568       -3.30551803258392       -2.17574719265018
H            8.21458086074815       -1.05074031369584       -3.04363632068439
H            6.83726446060978       -0.10748439185070       -2.47661262238741
H            6.57825037111831       -1.47045147493185       -3.56204449359713
H            8.90871913149265       -1.47291700050985       -0.60277600581538
H            7.73884814018959       -2.17244016811610        0.52136660920306
H            7.52811902034237       -0.52257300959259       -0.05930530814981
H            5.45070566085057       -0.06792855941558       -0.68946460836354
H            2.75619298969262       -0.59836296979128        2.83341248140358
H            4.17884606076515        0.24797798686523        4.67136045726238
H            5.84082748001199        2.00441911121212        4.25725314904501
H            6.09804668885680        2.98771102495778        2.00632430364954
H            5.88185211893653        3.74706871034491       -0.48997145926865
H            5.22930595444367        4.15051665470274       -2.83719058324547
H            3.45337426327590        2.82361197917977       -3.88720620767132
H            2.30894148844485        1.02810610624437       -2.62460347596561
H            2.67599763706499        3.20590215963483        0.87737919955165
H            3.37161124267003        5.32600572050339        1.81911246041338
H            2.98499669770420        6.27261866212610        0.38257557130805
H            2.23907593083231        6.68294908579996        1.92694821899560
H           -0.05529421555430        6.45510415565426        1.13974024158288
H           -1.93742794440822        4.97964220165791        0.67697429598203
H           -2.95729780953620        4.26121792501481       -0.89952930166324
H           -5.27109230827288        4.23376742784050       -1.56293152265383
H           -8.90965462643777        1.47306808655506       -0.60526167218819
H           -7.52884578173162        0.52527926123353       -0.05778055288436
H           -7.74000393035786        2.17749258250435        0.51603612054311
H           -7.54645809396102        4.13012983326635       -1.11856920745714
H           -7.11326897907993        3.81617866174766       -2.80901694516493
H           -8.67533031986156        3.30021373836791       -2.18516759412784
H           -8.21606665560059        1.04224696740880       -3.04451938327539
H           -6.57964351231731        1.45943596079780       -3.56464717702341
H           -6.83904677752975        0.10062978476052       -2.47409844761044
H           -5.45177772311217        0.06730500713642       -0.68786663615580
H           -2.75554697258745        0.60773317284266        2.83230742696305
H           -4.17689557006377       -0.23377368331842        4.67348473995417
H           -5.83886435105302       -1.99160940563363        4.26526138518944
H           -6.09744178694818       -2.98104355920529        2.01719353217144
H           -5.88305794478061       -3.74688650355164       -0.47723064124510
H           -5.23209577952136       -4.15666703214742       -2.82378820154331
H           -3.45657876633419       -2.83286637776145       -3.87845532097490
H           -2.31110569939884       -1.03414233598448       -2.62135770044318
