120
 energy: -173.959613293230 gnorm: 0.000037947831 xtb: 6.7.1 (edcfbbe)
C           -2.11193376414399       -6.03547097758812       -1.35800404094870
C           -1.04173663109415       -5.03385125019253       -1.03745884716431
C            0.30022854718063       -5.40506540159538       -1.00991175129061
C            1.30112723354443       -4.49026156040224       -0.74219403941304
C            0.94652948478513       -3.17872791101507       -0.46093512103495
C           -0.41089928841525       -2.76987088753326       -0.51693928740934
C           -1.38620411598735       -3.71008399023953       -0.81402121948348
C           -0.43279038391881       -1.33699263112603       -0.33559310668678
C           -1.41737087044151       -0.34809365042049       -0.24757838103430
C           -0.93468839086751        0.95158292741314       -0.23599293607756
C            0.42742063040535        1.34003189691225       -0.33982820364178
C            1.41320853136305        0.35068286938003       -0.26833377595964
C            0.93070062680238       -0.94892751985793       -0.25221665476771
N            1.73925665913089       -2.07228376625151       -0.23110974499584
C            3.06358808260735       -1.95962724447476        0.16587039207447
C            3.79623319946345       -3.04702932787909        0.63877717742604
C            5.12019571428119       -2.91085635333964        0.99505266561557
C            5.76810736272521       -1.68218006588636        0.90784185732394
C            7.24231104673523       -1.57093547930514        1.26248752087156
C            7.78881193757302       -0.15225676791759        1.07610005488065
C            7.43711463327893       -1.97193346398895        2.73224842965589
C            8.04424434301523       -2.51569522776740        0.35485337353193
C            5.00471603919238       -0.59428301932436        0.51246497152867
C            3.66412278889814       -0.69925036732882        0.16476982357100
C            2.90469688470639        0.57341963983843       -0.21978823928774
C            3.33209704175904        1.66031645347611        0.74346230678945
C            2.97752617177210        1.82573455581254        2.06278475788757
C            3.55904146046311        2.86384363834932        2.78058449693531
C            4.48927716275411        3.70351445930322        2.18794639397395
C            4.85204087839908        3.54000720625768        0.85954861280385
C            4.26452010600874        2.51667765860226        0.13528818602058
C            4.39080343053339        2.13583088976451       -1.26713456090751
C            5.14193443778991        2.68145559261920       -2.29461889124585
C            5.01647811254936        2.14347909408173       -3.56637718961414
C            4.15592138174068        1.08373477428042       -3.80868959532310
C            3.41000321068338        0.52246387192426       -2.77956703220887
C            3.53216925481474        1.05273755942540       -1.51472910246526
C            0.40261783588994        2.77324521044954       -0.51847038892253
C            1.37299067223288        3.71344907638102       -0.83578713216393
C            1.02368376292761        5.03607383163933       -1.05459907161409
C            2.08061754552506        6.05420747106357       -1.36528075652377
C           -0.31843665115797        5.40745716099246       -0.99913049326632
C           -1.31371227648907        4.49344062596757       -0.71292892883358
C           -0.95349685629879        3.18150855910042       -0.43882648202805
N           -1.74273624286617        2.07468552590845       -0.19976066292387
C           -3.06241368984896        1.96084750338684        0.21244639507847
C           -3.78960976099172        3.04639886223222        0.69791245390757
C           -5.10902367820786        2.90857620001320        1.07021504276219
C           -5.75803909406092        1.68027223259131        0.98603370963024
C           -7.22696167422390        1.56670629079271        1.36123084016901
C           -7.39921152907380        1.95845134095030        2.83633932564268
C           -8.04287802666935        2.51682680019868        0.47193200581252
C           -7.77588050086007        0.14902147413878        1.17433161613416
C           -4.99960847283532        0.59411279471994        0.57667814204984
C           -3.66316181828299        0.70055127993346        0.21379954178018
C           -2.90826881263508       -0.57118805180762       -0.18117888257334
C           -3.32448723064311       -1.65910696607317        0.78601985410909
C           -2.95910465561109       -1.82288901513451        2.10260634188643
C           -3.53128447705832       -2.86279308827015        2.82535049802912
C           -4.46337510025668       -3.70587337683006        2.24052412958330
C           -4.83673868217585       -3.54422751710502        0.91473433813858
C           -4.25867849903246       -2.51900394667316        0.18550749165808
C           -4.39705130390069       -2.13998772101665       -1.21625804624532
C           -5.14971005037434       -2.69322406467361       -2.23849622113420
C           -5.03717620285810       -2.15461531790602       -3.51113631077752
C           -4.18728707510003       -1.08765125089741       -3.75947734680275
C           -3.43774368046268       -0.52089175130630       -2.73601125522154
C           -3.54700778798867       -1.05173498527146       -1.47022765262337
H           -2.50730256424598       -5.85664468976464       -2.35844558018539
H           -1.72136092864316       -7.04943680784877       -1.31886171415178
H           -2.93655980036210       -5.94805509392096       -0.65292939661993
H            0.57152498316182       -6.42859124132336       -1.22689034370960
H            2.33168478726392       -4.80027264789558       -0.80174698457679
H           -2.41632628768904       -3.42212368139641       -0.90323979405309
H            3.31578073268914       -4.00292153273868        0.75911842962364
H            5.64618211553864       -3.78414917766006        1.34939743867333
H            7.28577642934267        0.55158028017344        1.73568447430077
H            7.67311633627965        0.17908986490943        0.04626615412278
H            8.84987436297099       -0.13903819407604        1.31773089457299
H            8.48622678108449       -1.88702115616307        3.00794440862880
H            7.12011732724829       -2.99632382613095        2.90808075761346
H            6.85526671439894       -1.31861632545621        3.37973173369485
H            9.10612842356819       -2.44040077412795        0.57977573494393
H            7.89202044509006       -2.25058807492772       -0.68977367238447
H            7.74001264416503       -3.54970892420284        0.49192024925286
H            5.45771300371516        0.38101254091196        0.47284008740549
H            2.25941500419680        1.16600219106835        2.52880609794427
H            3.28556789881331        3.01528394894460        3.81481400622649
H            4.93501323572962        4.49856822875952        2.76847071608956
H            5.57339671109562        4.20031971979337        0.40099166178406
H            5.80971414044734        3.51060480072127       -2.11159880259230
H            5.59381990207106        2.55783658431534       -4.38044004695182
H            4.06673956511126        0.68603475303567       -4.80929350647279
H            2.74522273239453       -0.30806368298720       -2.97013615223284
H            2.40056324584596        3.42238610362711       -0.94608302164032
H            2.48646525784599        6.46395095494787       -0.43919469638995
H            2.89901948071792        5.60173784097308       -1.92054832877177
H            1.67004195315443        6.87633974579409       -1.94732253144916
H           -0.59270058978079        6.43102102944956       -1.21207630163149
H           -2.34537235557320        4.80249706691975       -0.75550366271478
H           -3.30824789253048        4.00209186211467        0.81590861876663
H           -5.63049751805932        3.78029286592725        1.43493804047599
H           -8.44300696339088        1.86627335839903        3.12927110672378
H           -6.80283886860444        1.30479859583983        3.47017246559203
H           -7.08479462574707        2.98360965965375        3.01238513353232
H           -7.73579679392749        3.54991210272733        0.60959281855536
H           -7.90794993732005        2.25731259009356       -0.57645075043035
H           -9.10099700402113        2.44090161604127        0.71378896522416
H           -8.83365378837976        0.13439057184142        1.42990302288117
H           -7.67380309476143       -0.17675765006130        0.14128288573906
H           -7.26420043522874       -0.55833116318756        1.82342448959810
H           -5.45277298739569       -0.38118110483313        0.53842800191562
H           -2.23978987431636       -1.16050933004325        2.56291689458424
H           -3.24917554682808       -3.01296272245394        3.85740890752942
H           -4.90182593569761       -4.50219927799187        2.82486189676706
H           -5.56093269242421       -4.20587624976983        0.46231807106584
H           -5.80774804689581       -3.52900436885630       -2.05103895506653
H           -5.61612871977154       -2.57422236009396       -4.32136043418016
H           -4.10845570098094       -0.68925168136160       -4.76069827504725
H           -2.77979519809985        0.31392045076031       -2.93169360706792
