72
 energy: -113.932246871406 gnorm: 0.000050720525 xtb: 6.7.1 (edcfbbe)
C           -2.28101197399779       -0.02826392174613       -3.18186350191304
C           -3.18525213104158       -0.01201218586019       -2.19759240633471
C           -2.83499247330931        0.00124714795269       -0.72730939321103
C           -1.36038331652721        0.00274755126313       -0.47313251827484
C           -0.45794250309379       -0.01297413021072       -1.47882223083026
C           -0.88173018154229       -0.03121054369583       -2.88640039387767
C            0.22256290048708       -0.04826467794820       -3.67346700601731
C            1.39700686473414       -0.04125173643611       -2.82393522224600
C            0.96386041951248       -0.01862690970730       -1.48288004117105
C            1.88367473441348       -0.00481304059812       -0.29338660506661
C            3.30337459853261       -0.01726736488976       -0.77187652805095
C            4.48693840215179       -0.00983184413541        0.02303705320632
C            4.69587068982779        0.01403448703248        1.39157229300439
C            6.00569182885507        0.01453079707300        1.86857301964873
C            7.08572109740633       -0.00861212735242        0.99955227345555
C            6.89707513774480       -0.03238110151243       -0.38126628988231
C            5.60315430313342       -0.03267486024972       -0.87663754156060
C            5.09270478822510       -0.05227420409430       -2.20425822508126
C            3.68838497419084       -0.04259620713089       -2.14021269061903
C            2.73574771675101       -0.05430805143374       -3.18112723447748
C            1.65065453131959       -1.28575172198841        0.49467755634560
C            1.95885289986794       -2.47860082810481       -0.15649774708376
C            1.77592791668675       -3.70551103492954        0.44961534035274
C            1.27054903609396       -3.76620138351168        1.73939282195568
C            0.95380288023627       -2.59816473943659        2.39967996611061
C            1.14261907748449       -1.36262738799278        1.78321564077968
S            0.68286632061659        0.04156107082275        2.75103637477226
C            1.15221261507618        1.41509222831286        1.74455354654813
C            0.97228081791114        2.66852454268824        2.32659980666200
C            1.29684884669141        3.81559818913133        1.63412355593901
C            1.80143255810612        3.71568211397461        0.34646853331025
C            1.97571862009143        2.47116987756377       -0.22536997315342
C            1.65946074570755        1.29897995585416        0.45863376313129
C           -3.44995225011371       -1.25400394258339       -0.11734957339614
C           -2.65945287377723       -2.37312553621390        0.11952048115073
C           -3.20371247958979       -3.54783741034392        0.60568070479257
C           -4.56245956811313       -3.62827132940709        0.86344025223413
C           -5.36463775761123       -2.52752393316926        0.63779546918959
C           -4.81103802666868       -1.34993134837932        0.14954026371931
S           -5.91664310317990        0.00463911785629       -0.12428961908814
C           -4.81119173263425        1.36260143379279        0.13309120055598
C           -5.36463427524339        2.54545197493014        0.60863067698377
C           -4.56245949184901        3.64876499675071        0.82139416965079
C           -3.20403192573023        3.56595924762741        0.56264145107001
C           -2.66001402465000        2.38604820650354        0.08896259098228
C           -3.45034687373402        1.26389996608008       -0.13407260195039
H           -2.59258350889733       -0.03879582061389       -4.21754511307772
H           -4.24280669478295       -0.00983381933823       -2.41936726063885
H           -1.06408124873478        0.01452128319383        0.56541667315192
H            0.25493626225594       -0.06437141649060       -4.74808960260093
H            3.86562653070219        0.03211073778071        2.08176257717566
H            6.18013974698171        0.03299733377195        2.93442418116408
H            8.08962893857376       -0.00803631940121        1.39820067661086
H            7.74495660831219       -0.05011277653177       -1.05067861403786
H            5.68089391712727       -0.07118288690410       -3.10356642988750
H            3.04719246500377       -0.07245134286808       -4.21415074854766
H            2.34689007335998       -2.42923449820206       -1.16347014095163
H            2.02540731805728       -4.61092633760184       -0.08258498367637
H            1.12154651489287       -4.71761433336944        2.22709578576581
H            0.55374218236230       -2.62055330161714        3.40279280424497
H            0.57276131892776        2.72143619276295        3.32877998769150
H            1.15464056972249        4.78113915642413        2.09540351863951
H            2.05707283491494        4.60423555317683       -0.21064935599008
H            2.36326695771761        2.39120791843246       -1.23055224428198
H           -1.60218065085846       -2.32337449637472       -0.09675581736686
H           -2.56546173751104       -4.40177271809815        0.77451348298984
H           -4.99651553840512       -4.54237997967407        1.23927402576091
H           -6.42622544598692       -2.56515141439698        0.83162376833224
H           -6.42600634344931        2.58491417602276        0.80327572442559
H           -4.99629800120889        4.56677385388293        1.18787898918064
H           -2.56588157609038        4.42193679818309        0.72123448965711
H           -1.60306098207509        2.33422386290733       -0.12842833384712
