  72
       -113.89115053
 C         -2.2483965328       -0.0273526327       -3.1830122852
 C         -3.1433783967       -0.0118546868       -2.1895183563
 C         -2.7804578052       -0.0010799135       -0.7227966314
 C         -1.3071446229        0.0012929958       -0.4806787733
 C         -0.4184043285       -0.0133032507       -1.4963282956
 C         -0.8461073437       -0.0305535409       -2.9010902565
 C          0.2579791595       -0.0457383933       -3.6901739656
 C          1.4351100715       -0.0385826833       -2.8422097584
 C          1.0002221024       -0.0181550380       -1.5037283131
 C          1.9019071346       -0.0044429381       -0.3034895156
 C          3.3231096721       -0.0195389003       -0.7664655702
 C          4.4970882519       -0.0138565550        0.0391119033
 C          4.6881883773        0.0019997075        1.4099620004
 C          5.9924677995        0.0031914172        1.9011304382
 C          7.0815087661       -0.0107683821        1.0438628775
 C          6.9091762461       -0.0268351932       -0.3393815821
 C          5.6216860016       -0.0289367766       -0.8491657588
 C          5.1232332658       -0.0442283390       -2.1822610010
 C          3.7188608199       -0.0385417965       -2.1325603921
 C          2.7779391840       -0.0487759055       -3.1854911962
 C          1.6291817019       -1.2820305785        0.4740043110
 C          1.8522331240       -2.4763765480       -0.2070743657
 C          1.5849270423       -3.7013811439        0.3704749362
 C          1.0764179072       -3.7572898877        1.6591647003
 C          0.8538671049       -2.5866728078        2.3522733395
 C          1.1321569873       -1.3535326208        1.7666649709
 S          0.8029283598        0.0535576375        2.7814270880
 C          1.1554595991        1.4222125305        1.7229748493
 C          0.9013558269        2.6778546379        2.2706760664
 C          1.1414325346        3.8221573487        1.5404527388
 C          1.6419881811        3.7169744521        0.2517383190
 C          1.8863599086        2.4700131716       -0.2876999067
 C          1.6471716097        1.3016600305        0.4319782987
 C         -3.3849721537       -1.2543573385       -0.1023180872
 C         -2.5852964364       -2.3625383346        0.1530672870
 C         -3.1226971872       -3.5313869083        0.6599473120
 C         -4.4809836008       -3.6167376146        0.9178665898
 C         -5.2907992254       -2.5252793330        0.6745460362
 C         -4.7445562027       -1.3522954020        0.1688629542
 S         -5.8517899479       -0.0011204369       -0.1146165120
 C         -4.7464385576        1.3536131057        0.1590391408
 C         -5.2936381771        2.5288358524        0.6584338174
 C         -4.4852662852        3.6232581405        0.8929300091
 C         -3.1275940993        3.5391319693        0.6315177493
 C         -2.5892036484        2.3678370534        0.1314138822
 C         -3.3871932381        1.2561598040       -0.1138833030
 H         -2.5711806569       -0.0364793063       -4.2150278947
 H         -4.2021776094       -0.0084446935       -2.4001375657
 H         -1.0013814588        0.0119676526        0.5544240973
 H          0.2884020553       -0.0609898337       -4.7645806879
 H          3.8498742526        0.0125672851        2.0895286859
 H          6.1559794725        0.0152351469        2.9685862497
 H          8.0805879297       -0.0091026401        1.4536354467
 H          7.7652855999       -0.0375799939       -0.9980215093
 H          5.7212643624       -0.0574758080       -3.0749937349
 H          3.1034093894       -0.0641684147       -4.2139585304
 H          2.2371363735       -2.4290718251       -1.2145232496
 H          1.7674205777       -4.6096592696       -0.1832406452
 H          0.8552311965       -4.7069313234        2.1217160732
 H          0.4582661271       -2.6061818844        3.3567565527
 H          0.5110797607        2.7357387658        3.2757647383
 H          0.9398533734        4.7896739188        1.9741233559
 H          1.8367635454        4.6041122566       -0.3313182112
 H          2.2659320753        2.3846400922       -1.2946223544
 H         -1.5286159565       -2.3127652767       -0.0622163093
 H         -2.4775695699       -4.3766764908        0.8456925682
 H         -4.9087346084       -4.5271447058        1.3089953420
 H         -6.3513814930       -2.5673113822        0.8704074222
 H         -6.3538578799        2.5703273559        0.8563509544
 H         -4.9136474275        4.5351363361        1.2798456429
 H         -2.4837221879        4.3869666250        0.8102064197
 H         -1.5331340675        2.3188227035       -0.0873979238
