72
 energy: -113.956713543701 gnorm: 0.000107384123 xtb: 6.7.1 (edcfbbe)
C           -2.47134868496444        0.00002096668275       -3.15375529899132
C           -3.38375019763225        0.00003745832963       -2.17567099070975
C           -3.04248138947871        0.00001361479178       -0.70441298628484
C           -1.57258937200320       -0.00019499811235       -0.43713288474568
C           -0.67058499318575       -0.00015830611274       -1.43076587601113
C           -1.07599410540308        0.00002639796133       -2.84463510274571
C            0.04387937917702       -0.00003825119308       -3.61086925254991
C            1.20009230924322       -0.00009531796926       -2.73537568826519
C            0.76860059218977       -0.00001906965981       -1.41847553001355
C            1.67338287901489        0.00000809683844       -0.22569789907700
C            3.10749353164092       -0.00001041053138       -0.67138020638667
C            4.25537189026791       -0.00002334670363        0.07789123322081
C            4.48806292003260       -0.00001405131701        1.47798307885282
C            5.76485626429191        0.00000134094929        1.93680102850707
C            6.87682335474435       -0.00003624549205        1.04337709811090
C            6.70908577681964       -0.00008375262189       -0.30440691845996
C            5.39678089739768       -0.00006096002781       -0.84083038061872
C            4.93009601329972       -0.00005482766728       -2.13412639331002
C            3.50307621605010       -0.00013944414175       -2.07814071297151
C            2.57276480092798       -0.00019906888990       -3.08086435672774
C            1.41889521772004       -1.29403179664871        0.53298152765539
C            1.74724010710667       -2.47765376914679       -0.12525632534955
C            1.56300587769577       -3.71189968872337        0.46440075201869
C            1.04213768320285       -3.79026456871372        1.74744945003154
C            0.70620747826648       -2.63210258986673        2.41436624534634
C            0.88801743612346       -1.38878434755279        1.81057588469579
S            0.38408578763914        0.00009122741865        2.77872578459867
C            0.88802537346518        1.38890856950054        1.81049652645320
C            0.70624747717567        2.63226068371436        2.41422315629388
C            1.04220223297131        3.79037935239182        1.74724340312814
C            1.56306593412763        3.71193619953497        0.46419651424208
C            1.74726969928597        2.47765722974101       -0.12539559699405
C            1.41889651922715        1.29408344215063        0.53290669408117
C           -3.65593223367406       -1.25899158768779       -0.09970264901623
C           -2.86434613323693       -2.37643749662804        0.14202501023673
C           -3.41182645728647       -3.55165027883688        0.62376431939667
C           -4.77257969097800       -3.63372181979229        0.87028046840409
C           -5.57461719562284       -2.53406639899686        0.63910424814843
C           -5.01901421549027       -1.35494593343127        0.15655331931017
S           -6.12226110143697        0.00001794586063       -0.12232006067797
C           -5.01901623090611        1.35497934125084        0.15657657479318
C           -5.57462384889280        2.53407768919055        0.63917371060643
C           -4.77259286266278        3.63372945661737        0.87038456203213
C           -3.41184323987852        3.55167812012200        0.62386166964925
C           -2.86435752814376        2.37648620183907        0.14209086421421
C           -3.65592738533101        1.25902547371642       -0.09966813526469
H           -2.77337162751749       -0.00000819147508       -4.19157550375447
H           -4.43921256813423        0.00008781493059       -2.40407670825690
H           -1.28563403769165       -0.00000821859743        0.60469420200063
H            0.09918504872904       -0.00012878343376       -4.68406323604834
H            3.64929393663997        0.00004398381373        2.15988085933532
H            5.96358111660607        0.00007869629077        2.99951550086514
H            7.87105253942557        0.00001595257403        1.46865902290410
H            7.55679763386727       -0.00007558598882       -0.97583151181776
H            5.51364046675950       -0.00007432592074       -3.03585154367229
H            2.86684220850492       -0.00009922508780       -4.12166641340555
H            2.15967686802757       -2.41493176398391       -1.12164493317766
H            1.82685582434325       -4.60955274886565       -0.07389692590765
H            0.89709464897454       -4.74779938589567        2.22414616404134
H            0.29512716469575       -2.66721566485087        3.41258495235746
H            0.29515928668507        2.66743397112156        3.41243593771657
H            0.89715886516399        4.74794311475078        2.22387988949340
H            1.82693166134400        4.60955295843076       -0.07415294007729
H            2.15972228959232        2.41486812121409       -1.12177289011154
H           -1.80525396158331       -2.32897450992194       -0.06491037100906
H           -2.77403137628965       -4.40463789019949        0.79781512181825
H           -5.20817430063863       -4.54855205019580        1.24221188908326
H           -6.63744647347693       -2.57335362730927        0.82481320573625
H           -6.63745097645914        2.57334857754035        0.82489565229016
H           -5.20819183234540        4.54854734762442        1.24233709829691
H           -2.77405553811533        4.40467104242342        0.79791293411587
H           -1.80527465003292        2.32907490887900       -0.06489033165357
