  50
  -70.2453028674000       0.297904972142164      !
 C          1.7070370217        5.4975972795       -0.1803333843
 C          0.7122716129        4.3882879889       -0.1034088557
 C         -0.6521390082        4.6180708179       -0.0615249591
 C         -1.5771689302        3.5889010658       -0.0011498600
 C         -1.1049599971        2.2467836618        0.0175189048
 C         -1.7265347344        1.0042433181        0.0033209810
 C         -3.0774674326        0.5719768022       -0.0156285961
 C         -3.3204712347       -0.7716868891        0.0235252218
 Br        -5.1408480533       -1.3383025382        0.0013545897
 C         -2.3081212848       -1.7720644239        0.0884842327
 C         -2.6589711325       -3.2200587450        0.1660038764
 C         -0.9714770866       -1.3534495466        0.0781057016
 C         -0.6779619729       -0.0106684375        0.0145756352
 N          0.5300503899        0.6281801744        0.0234954642
 C          1.7815787369        0.0235347694        0.0100366575
 C          2.7958967211        0.4643922112        0.8655551041
 C          4.0326859878       -0.1385291853        0.8431730446
 C          4.3236804488       -1.1949992022       -0.0238873497
 C          5.7073864627       -1.8199376331       -0.0060543243
 C          6.7508055047       -0.7400981069       -0.3279767360
 C          5.8587059171       -2.9488509363       -1.0291227350
 C          5.9744279876       -2.3999997768        1.3908344248
 C          3.3040895868       -1.6249635404       -0.8705230728
 C          2.0573382762       -1.0349436192       -0.8582390677
 C          0.3064210808        2.0188306600        0.0144673063
 C          1.2054268278        3.0340930401       -0.0713684219
 H          2.3690287581        5.4811902232        0.6873584562
 H          2.3333468894        5.3887486368       -1.0672458418
 H          1.2121906385        6.4643359587       -0.2203737861
 H         -1.0079041992        5.6386570256       -0.0790246850
 H         -2.6354938958        3.7890101598        0.0291038796
 H         -3.8787506447        1.2911470714       -0.0556622357
 H         -3.2714119670       -3.4276323430        1.0455018950
 H         -1.7587033198       -3.8268434324        0.2207185763
 H         -3.2341124715       -3.5298929191       -0.7089223339
 H         -0.1882239710       -2.0932533397        0.1376990924
 H          2.5885842064        1.2561771087        1.5695490105
 H          4.7870519268        0.2193501653        1.5273342668
 H          7.7487423324       -1.1731335348       -0.3277699617
 H          6.7296774990        0.0639420438        0.4020748219
 H          6.5596591465       -0.3142585635       -1.3108102936
 H          6.8676802947       -3.3525640075       -0.9756357292
 H          5.1629495853       -3.7592079430       -0.8247100240
 H          5.6969412022       -2.5847580285       -2.0410530165
 H          6.9558672731       -2.8684036752        1.4199225959
 H          5.2262057432       -3.1511483991        1.6351894508
 H          5.9434631429       -1.6275119710        2.1539274848
 H          3.4745165049       -2.4297681124       -1.5665660078
 H          1.2960082412       -1.3646915840       -1.5490595762
 H          2.2688752315        2.8630647111       -0.1348558661
  50
  -70.2452777014000       0.290076307837090      !
 C          1.7000823003        5.4920735502       -0.4183267784
 C          0.7084736189        4.3857848471       -0.2822761782
 C         -0.6550020250        4.6168261198       -0.2177323139
 C         -1.5784954488        3.5907625548       -0.1065052131
 C         -1.1057221752        2.2491543270       -0.0589466501
 C         -1.7259432189        1.0066653428       -0.0220962001
 C         -3.0767055011        0.5732396544        0.0114782063
 C         -3.3161441904       -0.7684393150        0.1042879094
 Br        -5.1360912163       -1.3355785879        0.1604831241
 C         -2.3011975496       -1.7658045208        0.1706918691
 C         -2.6473352695       -3.2102342036        0.3102384625
 C         -0.9655070021       -1.3474016905        0.1060114208
 C         -0.6764732482       -0.0071359489       -0.0054171417
 N          0.5303114368        0.6324468554       -0.0418875452
 C          1.7830201817        0.0284257938       -0.0458134746
 C          2.7944865496        0.4826431258        0.8050187158
 C          4.0294102278       -0.1249863357        0.7999086505
 C          4.3229567310       -1.1927405091       -0.0519751806
 C          5.7007209011       -1.8299356396       -0.0098115253
 C          5.8929285600       -2.4885172855        1.3643375001
 C          6.7723686788       -0.7507027372       -0.2211266390
 C          5.8882166628       -2.9003513428       -1.0883494434
 C          3.3061768763       -1.6342240955       -0.8960376432
 C          2.0590565412       -1.0444639825       -0.8953744866
 C          0.3055795662        2.0214509968       -0.0863274640
 C          1.2028785784        3.0327970668       -0.2202853411
 H          2.4141166791        5.4723514802        0.4068357162
 H          2.2706790008        5.3816740910       -1.3424655718
 H          1.2065724398        6.4602485226       -0.4289926967
 H         -1.0110555533        5.6366836247       -0.2583210566
 H         -2.6358846595        3.7922970822       -0.0582220424
 H         -3.8798274824        1.2903148262       -0.0288616249
 H         -3.2244224580       -3.3875062375        1.2198956385
 H         -1.7450295095       -3.8150992323        0.3502513523
 H         -3.2564090249       -3.5494690333       -0.5300758675
 H         -0.1794002474       -2.0843476009        0.1640550405
 H          2.5861242357        1.2884055854        1.4928362565
 H          4.7790832574        0.2382523278        1.4861840524
 H          5.1402647832       -3.2584949905        1.5209413941
 H          5.8055537791       -1.7599013645        2.1657570867
 H          6.8764164812       -2.9493130331        1.4247665187
 H          6.6083168378       -0.2369827973       -1.1660346691
 H          6.7604049118       -0.0127792753        0.5759352473
 H          7.7598360415       -1.2064122847       -0.2429974897
 H          6.8981284151       -3.3007738332       -1.0290106643
 H          5.7503222226       -2.4803742301       -2.0821382227
 H          5.1943628359       -3.7258651594       -0.9496356430
 H          3.4785892050       -2.4489150849       -1.5799980440
 H          1.2975285192       -1.3869716611       -1.5798568458
 H          2.2649166290        2.8582422286       -0.2978249224
  50
  -70.2452327329000       0.276596173234737      !
 C          1.6658459397        5.5176449897       -0.4175628711
 C          0.6826412967        4.4036591016       -0.2816303662
 C         -0.6827989072        4.6244531087       -0.2202359154
 C         -1.5978312161        3.5912207772       -0.1073043832
 C         -1.1141334963        2.2540813853       -0.0532077330
 C         -1.7253871018        1.0071480918       -0.0161042318
 C         -3.0734563953        0.5654842933        0.0062861530
 C         -3.3054692188       -0.7774600295        0.0980152716
 Br        -5.1221931373       -1.3561156972        0.1350069889
 C         -2.2845648741       -1.7677048585        0.1772630965
 C         -2.6228210654       -3.2144367731        0.3133155648
 C         -0.9512357301       -1.3406249462        0.1268195335
 C         -0.6688420168        0.0009864584        0.0114419657
 N          0.5341850063        0.6490871318       -0.0215519484
 C          1.7902679722        0.0539005545       -0.0160852579
 C          2.8047616594        0.5358057562        0.8141863045
 C          4.0478233263       -0.0622262712        0.8213803273
 C          4.3374510415       -1.1550082765        0.0070358719
 C          5.6915995244       -1.8415900421       -0.0113370775
 C          6.6857066321       -1.2125962034        0.9685556547
 C          6.2843257081       -1.7426581880       -1.4247631686
 C          5.5098254640       -3.3173476993        0.3727844607
 C          3.3154850063       -1.6228219882       -0.8231953809
 C          2.0685626660       -1.0409331638       -0.8399239307
 C          0.2989548043        2.0367701019       -0.0743589612
 C          1.1875618905        3.0552590807       -0.2134451987
 H          2.3649079630        5.5181840277        0.4207512518
 H          2.2541754303        5.3988411822       -1.3293204471
 H          1.1630377825        6.4805438284       -0.4515341404
 H         -1.0467829227        5.6413603199       -0.2641403885
 H         -2.6569558674        3.7840152029       -0.0612482101
 H         -3.8804293874        1.2776347887       -0.0426883102
 H         -1.7171186139       -3.8136828836        0.3631180458
 H         -3.2206895193       -3.5572449521       -0.5334347556
 H         -3.2085395034       -3.3955508611        1.2169109287
 H         -0.1621354722       -2.0731377924        0.1974530084
 H          2.5966134955        1.3582623924        1.4818556164
 H          4.7948418832        0.3350896599        1.4887704455
 H          6.3220899176       -1.2781835848        1.9914292481
 H          6.8738290138       -0.1703422094        0.7215975703
 H          7.6327872699       -1.7454990169        0.9148139974
 H          7.2616497851       -2.2194768562       -1.4540535988
 H          5.6466953931       -2.2289444842       -2.1577356308
 H          6.4001860102       -0.6996764620       -1.7119678002
 H          6.4737549961       -3.8213048405        0.3864350786
 H          4.8660962229       -3.8353553057       -0.3324664882
 H          5.0650904491       -3.3960861970        1.3626528739
 H          3.4974446960       -2.4577229347       -1.4827015043
 H          1.3086077925       -1.4016693346       -1.5165734843
 H          2.2509639658        2.8900153421       -0.2917404379
  50
  -70.2441899333000       9.175054497486070E-002 !
 C          1.6514304519        5.5516093432       -0.2060736435
 C          0.6950899737        4.4072099427       -0.1173938335
 C         -0.6755751285        4.6269641444       -0.0605373204
 C         -1.5910426248        3.5942983970        0.0046677877
 C         -1.1096291572        2.2560106326        0.0169333565
 C         -1.7222398758        1.0089864157        0.0026482092
 C         -3.0712679751        0.5694698611       -0.0114341875
 C         -3.3063941695       -0.7760899171        0.0303870319
 Br        -5.1241663954       -1.3522275477        0.0125579290
 C         -2.2888107843       -1.7689913364        0.0957719163
 C         -2.6287391440       -3.2195042629        0.1746523279
 C         -0.9530274830       -1.3417444219        0.0804243533
 C         -0.6673813906        0.0018233389        0.0101708257
 N          0.5381059580        0.6490390670        0.0120635633
 C          1.7917283458        0.0521770411        0.0104614436
 C          2.8077068688        0.5198444925        0.8488444363
 C          4.0502226384       -0.0782748029        0.8460603716
 C          4.3391775759       -1.1599343062        0.0160815416
 C          5.6900369300       -1.8524252282       -0.0056650778
 C          5.5033892560       -3.3106346186        0.4389166415
 C          6.7067947182       -1.1914966071        0.9288289585
 C          6.2583997511       -1.8139689302       -1.4319001779
 C          3.3149184685       -1.6175491480       -0.8176526825
 C          2.0698016394       -1.0327436715       -0.8281972985
 C          0.3041991728        2.0384990867        0.0033310796
 C          1.1950293242        3.0617762046       -0.0945751750
 H          2.6816561261        5.2053360960       -0.1772040374
 H          1.5006827909        6.1068662764       -1.1335891056
 H          1.4952467026        6.2495068518        0.6174328068
 H         -1.0336572285        5.6469275269       -0.0699123975
 H         -2.6506699504        3.7864894503        0.0456832774
 H         -3.8763612445        1.2843043650       -0.0510104922
 H         -3.2549022565       -3.4284258514        1.0434738678
 H         -1.7250968846       -3.8187229410        0.2475855713
 H         -3.1856724277       -3.5380482173       -0.7086715622
 H         -0.1673093774       -2.0784517016        0.1430470975
 H          2.5998102243        1.3297783856        1.5316261711
 H          4.7977854046        0.3091765710        1.5186291377
 H          4.8359681576       -3.8455403366       -0.2309727367
 H          5.0818689596       -3.3469079273        1.4412619613
 H          6.4618356192       -3.8249603368        0.4484678907
 H          7.6560174638       -1.7191096510        0.8622902116
 H          6.8786211406       -0.1547610749        0.6484627890
 H          6.3740944177       -1.2320540205        1.9633467643
 H          7.2428334434       -2.2763939204       -1.4531745331
 H          6.3529561667       -0.7847758934       -1.7721790975
 H          5.6196564608       -2.3468234244       -2.1307142164
 H          3.4945196231       -2.4466496872       -1.4850242923
 H          1.3111424922       -1.3814980837       -1.5123494096
 H          2.2581420059        2.8934131693       -0.1721470731
  50
  -70.2434883931000       4.367200181114851E-002 !
 C          1.6339726780        5.5661824525        0.0943582216
 C          0.6586649485        4.4370649919        0.1025930819
 C         -0.7099755801        4.6419387039        0.1455120964
 C         -1.6179774544        3.5964378676        0.1404685365
 C         -1.1234472496        2.2631983800        0.0902161344
 C         -1.7246264794        1.0135172334        0.0070967167
 C         -3.0686063197        0.5611782281       -0.0389288954
 C         -3.2900466819       -0.7865891877       -0.0621804234
 Br        -5.1014904861       -1.3800286724       -0.1163381626
 C         -2.2620657402       -1.7723729362       -0.0383393139
 C         -2.5884581267       -3.2281321098       -0.0263804695
 C         -0.9322258064       -1.3322876995       -0.0242957796
 C         -0.6600988260        0.0163547612       -0.0249255733
 N          0.5378544046        0.6731851768        0.0225116263
 C          1.7951483419        0.0811174927        0.0032450456
 C          2.7917607408        0.4850958799        0.8952278624
 C          4.0273336294       -0.1251607547        0.8836600154
 C          4.3338837393       -1.1496137764       -0.0128514991
 C          5.6741646451       -1.8634737366        0.0259981460
 C          6.0759856073       -2.3842912719       -1.3600584273
 C          5.5349212171       -3.0521060372        0.9899972303
 C          6.7932652214       -0.9403102186        0.5236554012
 C          3.3298679268       -1.5414131348       -0.8995102444
 C          2.0884659533       -0.9442622958       -0.8997352272
 C          0.2918948235        2.0584199021        0.0853727020
 C          1.1743053222        3.0914929338        0.0623545244
 H          2.2299644686        5.5499046239       -0.8201627532
 H          1.1235227472        6.5235756783        0.1584760380
 H          2.3267224793        5.4823187357        0.9335252245
 H         -1.0822390350        5.6561331892        0.1827126735
 H         -2.6797408052        3.7770018289        0.1740343525
 H         -3.8810851831        1.2686882104       -0.0488923900
 H         -1.6780078837       -3.8214304283        0.0034406956
 H         -3.1568167378       -3.5083476069       -0.9155759884
 H         -3.1986954439       -3.4849475234        0.8416290960
 H         -0.1379895121       -2.0620359293        0.0059841975
 H          2.5723922607        1.2504979287        1.6242693092
 H          4.7591597886        0.2024936076        1.6041191101
 H          6.0350393300       -1.5844780167       -2.0962090821
 H          5.4315997202       -3.1958219339       -1.6865881758
 H          7.0930276599       -2.7687544849       -1.3273922003
 H          6.4730356259       -3.5992229350        1.0522420653
 H          5.2679577191       -2.7051304870        1.9859217345
 H          4.7581898243       -3.7321432935        0.6469359201
 H          7.7549009080       -1.4368476744        0.4142617222
 H          6.6721921115       -0.6931729814        1.5747374791
 H          6.8153318044       -0.0193416533       -0.0547505803
 H          3.5134348106       -2.3260691183       -1.6154340083
 H          1.3431608093       -1.2433617707       -1.6212964349
 H          2.2409733458        2.9414255503       -0.0012413224
