  71
       -120.95934771
 Cl        -1.5187368550       -2.5353315122       -0.8965638121
 C         -0.6528289534       -1.1607069914       -0.2938177428
 C          0.7462872435       -1.1489634744       -0.1842615604
 N          1.5220639698       -2.2797368675       -0.3384467017
 C          2.6973392224       -2.3384977464       -1.0814380137
 C          3.3644512649       -1.3307690056       -1.7566367019
 C          4.5060756509       -1.6740070785       -2.4580956664
 C          4.9719113259       -2.9854087953       -2.4924185516
 C          4.3069518604       -3.9931396145       -1.8214662571
 C          3.1610099605       -3.6701086925       -1.1074740559
 C          2.2544847912       -4.4410805073       -0.2983872637
 C          2.2275615716       -5.7736566989        0.0879712695
 C          1.2368410159       -6.1912189956        0.9555166158
 C          0.3044456115       -5.2899458413        1.4597314143
 C          0.3131094721       -3.9582953421        1.0861826428
 C          1.2694680819       -3.5456957397        0.1720343454
 N          1.3984766689       -0.0130313429        0.0084282576
 C          0.7661314532        1.1345163418        0.1980426533
 N          1.5617620123        2.2516450806        0.3522310244
 C          1.3403667937        3.5174989363       -0.1728488888
 C          0.3926005475        3.9443837845       -1.0893775655
 C          0.4172424099        5.2715334328       -1.4780070249
 C          1.3739689369        6.1541610907       -0.9866237859
 C          2.3553458292        5.7212009076       -0.1160028425
 C          2.3485979333        4.3929868173        0.2859630650
 C          3.2359868829        3.6090587908        1.1036658332
 C          4.3903367840        3.9113859447        1.8132107786
 C          5.0290151435        2.8955181032        2.4972440886
 C          4.5288586167        1.5964232272        2.4804615944
 C          3.3787256536        1.2738586711        1.7831941812
 C          2.7383994389        2.2895582279        1.0940517478
 C         -0.6327907870        1.1720782235        0.3022193427
 Cl        -1.4747613117        2.5637130023        0.8994647123
 C         -1.3557186428        0.0121168948        0.0028659136
 N         -2.7459319525        0.0249166343       -0.0002801814
 C         -3.5632128103       -0.7650064310        0.7867004135
 C         -3.2191496252       -1.6830789884        1.7651104673
 C         -4.2442415034       -2.3271260492        2.4321001851
 C         -5.5792699435       -2.0543967632        2.1449259869
 C         -5.9258131676       -1.1170245700        1.1914179640
 C         -4.9128999900       -0.4605898873        0.5054162573
 C         -4.9007946294        0.5600810304       -0.5075954192
 C         -5.8976709183        1.2395447785       -1.1946204437
 C         -5.5287206696        2.1682993744       -2.1481887214
 C         -4.1875552737        2.4091698680       -2.4352733531
 C         -3.1782364371        1.7419868021       -1.7670706750
 C         -3.5442721461        0.8333387436       -0.7878236027
 H          3.0107626102       -0.3133969118       -1.7220200138
 H          5.0488009736       -0.9058021623       -2.9882393350
 H          5.8674668793       -3.2139448938       -3.0504523030
 H          4.6665555613       -5.0104941624       -1.8477942484
 H          2.9744192571       -6.4629065498       -0.2751874222
 H          1.1944662748       -7.2244511232        1.2653979223
 H         -0.4386167806       -5.6336984002        2.1637496615
 H         -0.3965139146       -3.2671964384        1.5114130539
 H         -0.3357315773        3.2674274679       -1.5054438506
 H         -0.3182811813        5.6260795116       -2.1845574794
 H          1.3581294735        7.1842671116       -1.3091913405
 H          3.1202315315        6.3951611042        0.2382343560
 H          4.7761777262        4.9193355925        1.8263965147
 H          5.9304969539        3.1078129706        3.0521812274
 H          5.0512484796        0.8214821216        3.0211305426
 H          2.9985531384        0.2656935043        1.7622923248
 H         -2.1863232645       -1.8810177656        2.0076837243
 H         -4.0044173873       -3.0531157895        3.1946582208
 H         -6.3521976645       -2.5792211396        2.6859015934
 H         -6.9610441134       -0.8932794005        0.9835615719
 H         -6.9379578820        1.0399078351       -0.9875084358
 H         -6.2888468275        2.7101257114       -2.6905086398
 H         -3.9303549584        3.1281741564       -3.1987512557
 H         -2.1408989318        1.9151607655       -2.0094118860
  71
       -120.95683791
 Cl        -1.5272488865       -2.6284818579       -0.5527462102
 C         -0.6514450801       -1.1555981461       -0.3123511339
 C          0.7492020276       -1.0990640207       -0.3879249168
 N          1.5169910343       -2.1642281591       -0.8145622003
 C          1.2910478217       -2.9636716554       -1.9265385723
 C          0.3616644969       -2.8219542685       -2.9450990762
 C          0.3779195008       -3.7526248476       -3.9684621103
 C          1.3073799318       -4.7878462349       -3.9948392178
 C          2.2709141013       -4.9001626362       -3.0112605904
 C          2.2731018663       -3.9769957389       -1.9750436276
 C          3.1485683409       -3.7587314759       -0.8538519112
 C          4.2771823716       -4.4171637068       -0.3844962912
 C          4.9084707077       -3.9234688305        0.7405855600
 C          4.4267028904       -2.7930291767        1.3952772122
 C          3.3023272132       -2.1236148342        0.9473587224
 C          2.6708898355       -2.6140733533       -0.1826850912
 N          1.4063199895       -0.0150674994       -0.0066573216
 C          0.7741834208        1.0818242573        0.3785451912
 N          1.5637065373        2.1298426700        0.8084544210
 C          2.7183984194        2.5702596045        0.1723701811
 C          3.3357215203        2.0806700663       -0.9657962193
 C          4.4646929349        2.7402294611       -1.4168212304
 C          4.9643780461        3.8599898163       -0.7571257076
 C          4.3480273956        4.3517600566        0.3770183271
 C          3.2153010412        3.7029943902        0.8499863170
 C          2.3510152208        3.9220430043        1.9797285949
 C          2.3670260006        4.8348085199        3.0250830101
 C          1.4089973715        4.7242924156        4.0142307056
 C          0.4661347037        3.7012305499        3.9843827230
 C          0.4310274165        2.7815367752        2.9518030946
 C          1.3557950381        2.9219108507        1.9288574448
 C         -0.6250700303        1.1690397222        0.3086454273
 Cl        -1.4670617917        2.6600494953        0.5578693856
 C         -1.3504060290        0.0147137455       -0.0010300741
 N         -2.7452917659        0.0307698321        0.0017627738
 C         -3.5563132440       -0.6421765990        0.8937333128
 C         -3.2025608008       -1.4188776833        1.9853600390
 C         -4.2240371866       -1.9639753584        2.7402894774
 C         -5.5612495898       -1.7341061271        2.4252756677
 C         -5.9155480933       -0.9427850190        1.3501872537
 C         -4.9078482170       -0.3852073990        0.5743710447
 C         -4.9003801657        0.4805220161       -0.5734722829
 C         -5.8984629792        1.0558580996       -1.3488553666
 C         -5.5307936834        1.8461017865       -2.4201407922
 C         -4.1897886361        2.0575013766       -2.7319497121
 C         -3.1777172568        1.4932782280       -1.9783764638
 C         -3.5446362619        0.7170731584       -0.8907599186
 H         -0.3447248264       -2.0065039106       -2.9570315081
 H         -0.3422120288       -3.6664328203       -4.7684068357
 H          1.2847973343       -5.4974034496       -4.8080948497
 H          3.0153191499       -5.6806723435       -3.0490560183
 H          4.6498597431       -5.2942234668       -0.8913391544
 H          5.7902413338       -4.4178399612        1.1197548450
 H          4.9429188989       -2.4288301364        2.2708449721
 H          2.9354435204       -1.2421021293        1.4478800463
 H          2.9545090461        1.2073691727       -1.4701442337
 H          4.9698842411        2.3772478902       -2.2992602665
 H          5.8486546947        4.3473025846       -1.1396068256
 H          4.7341164352        5.2210140220        0.8873992894
 H          3.1205008325        5.6065108983        3.0652797636
 H          1.4008207050        5.4260057537        4.8345199420
 H         -0.2500026491        3.6167386748        4.7880491784
 H         -0.2856290409        1.9749307784        2.9591780583
 H         -2.1668869826       -1.5916278757        2.2378486231
 H         -3.9797056638       -2.5781495310        3.5941618995
 H         -6.3300768542       -2.1781548766        3.0394633281
 H         -6.9525927465       -0.7558140969        1.1165987237
 H         -6.9385317100        0.8839250919       -1.1172323159
 H         -6.2920160212        2.3050260494       -3.0329720557
 H         -3.9350754356        2.6734013956       -3.5815102077
 H         -2.1392294084        1.6517706560       -2.2284588525
  71
       -120.95648084
 Cl        -1.5216178942       -2.3923752278       -1.2178927625
 C         -0.6460202693       -1.1014935422       -0.4682139351
 C          0.7526118094       -1.1135107066       -0.3379405832
 N          1.5130067400       -2.2393231586       -0.5723015588
 C          2.7203727681       -2.2643780935       -1.2623072218
 C          3.4305996371       -1.2213004750       -1.8312760378
 C          4.6033175748       -1.5314052559       -2.4961429900
 C          5.0554556772       -2.8440718428       -2.5988961484
 C          4.3459799940       -3.8868990464       -2.0354784773
 C          3.1693531534       -3.5979567177       -1.3577862489
 C          2.2191121160       -4.4082087736       -0.6419196527
 C          2.1630213101       -5.7618962637       -0.3410987787
 C          1.1362677379       -6.2187652240        0.4624527708
 C          0.1964594684       -5.3381595982        0.9891123820
 C          0.2319663577       -3.9858210550        0.6997446425
 C          1.2255866379       -3.5322163592       -0.1536793045
 N          1.4075010526       -0.0112872824       -0.0093678861
 C          0.7769259243        1.1041961200        0.3227939548
 N          1.5626710079        2.2109803890        0.5621752784
 C          1.2953110876        3.5166785333        0.1701524559
 C          0.3076013610        4.0036046327       -0.6717417762
 C          0.2911244061        5.3625160946       -0.9304182881
 C          1.2443464909        6.2174604005       -0.3860200983
 C          2.2670827219        5.7274516941        0.4029675657
 C          2.3038581502        4.3666924256        0.6730008852
 C          3.2441601680        3.5268633551        1.3676136200
 C          4.4285527543        3.7840425332        2.0444895761
 C          5.1251726985        2.7192130894        2.5823092371
 C          4.6524268286        1.4160874166        2.4546075332
 C          3.4714864903        1.1376082781        1.7900848390
 C          2.7738631217        2.2027159345        1.2469268778
 C         -0.6218839980        1.1206579609        0.4555243547
 Cl        -1.4709066390        2.4238778868        1.2147471346
 C         -1.3428602605        0.0174840352       -0.0069051618
 N         -2.7402692107        0.0321187523       -0.0071053213
 C         -3.5453293445       -0.0766622883        1.1071181925
 C         -3.1840819862       -0.2482518849        2.4337009792
 C         -4.2008346224       -0.3567836293        3.3635235745
 C         -5.5400779518       -0.3026128756        2.9834338814
 C         -5.9015932909       -0.1430542192        1.6600237475
 C         -4.8990708973       -0.0305193103        0.7056136308
 C         -4.8968038657        0.1233484755       -0.7236841296
 C         -5.8961319889        0.2476695146       -1.6800316590
 C         -5.5302501313        0.3982805681       -3.0032586708
 C         -4.1897458970        0.4323228492       -3.3813015719
 C         -3.1761097177        0.3126825494       -2.4494375114
 C         -3.5418975975        0.1498981891       -1.1229538776
 H          3.0874116558       -0.2036511861       -1.7396686179
 H          5.1826055229       -0.7361988224       -2.9408204574
 H          5.9758194963       -3.0462282050       -3.1259491435
 H          4.6949680549       -4.9050557660       -2.1165126724
 H          2.9151489503       -6.4374225791       -0.7188766980
 H          1.0711187999       -7.2684944570        0.7058394564
 H         -0.5738949948       -5.7147384221        1.6453060512
 H         -0.4834257241       -3.3120306052        1.1446889293
 H         -0.4179783751        3.3504710454       -1.1307351310
 H         -0.4744837859        5.7647612082       -1.5768557116
 H          1.1941438713        7.2731530387       -0.6059464840
 H          3.0307872393        6.3828110261        0.7927745050
 H          4.7943870977        4.7947645775        2.1424996330
 H          6.0525103752        2.8962289455        3.1061301143
 H          5.2217291736        0.6029010598        2.8792597693
 H          3.1118856127        0.1274398351        1.6811202596
 H         -2.1460388286       -0.2956762401        2.7285935863
 H         -3.9518323887       -0.4897844960        4.4058261533
 H         -6.3052438870       -0.3924808314        3.7398121892
 H         -6.9404636802       -0.1098406192        1.3688077654
 H         -6.9358498787        0.2296063217       -1.3905286466
 H         -6.2927417925        0.4957273971       -3.7614140071
 H         -3.9374658972        0.5574740859       -4.4237905621
 H         -2.1370164106        0.3440738432       -2.7428010086
  71
       -120.95637947
 Cl        -1.4856186306       -2.5457624626       -0.7962295803
 C         -0.6112759464       -1.0849427041       -0.4759600326
 C          0.7931529296       -1.0605207413       -0.4042866507
 N          1.5682474591       -2.1274729999       -0.8082001744
 C          1.3801340211       -2.8964088440       -1.9504350695
 C          0.5406361565       -2.6841005373       -3.0325234364
 C          0.5794521000       -3.5949890614       -4.0726406073
 C          1.4468640567       -4.6825562198       -4.0526472751
 C          2.3268945872       -4.8666818270       -3.0037107844
 C          2.3047351163       -3.9627104557       -1.9510994915
 C          3.1118118465       -3.8098623730       -0.7695027964
 C          4.1687414021       -4.5378241335       -0.2405042833
 C          4.7583467312       -4.0924436253        0.9267735890
 C          4.3089904536       -2.9367053241        1.5588774792
 C          3.2547555222       -2.1993054314        1.0507062130
 C          2.6569399000       -2.6469806376       -0.1139520602
 N          1.4261989000       -0.0093593547        0.0970756041
 C          0.7707611976        1.0818699058        0.4529419967
 N          1.5239543622        2.1281126521        0.9754651250
 C          1.6571057775        3.3916310648        0.4275209169
 C          1.1115953953        3.9083047952       -0.7368657733
 C          1.4243691876        5.2134537694       -1.0688738872
 C          2.2693313189        5.9826666557       -0.2730313603
 C          2.8392474766        5.4606302984        0.8715684567
 C          2.5379911709        4.1527177942        1.2273302016
 C          2.9544535617        3.2993661902        2.3073909193
 C          3.7829848269        3.4797810428        3.4070657198
 C          3.9493910409        2.4298432677        4.2890787114
 C          3.2866062725        1.2198476306        4.0991923897
 C          2.4526552818        1.0194636577        3.0149370914
 C          2.3124093154        2.0577492963        2.1093634442
 C         -0.6162394121        1.1887345973        0.3035132403
 Cl        -1.4553818842        2.6433421085        0.7162599566
 C         -1.3279296878        0.0677890572       -0.1414394767
 N         -2.7159903729        0.0830964183       -0.2094732564
 C         -3.5798765077        0.2835886235        0.8519792888
 C         -3.2930624905        0.4740155439        2.1940262414
 C         -4.3588461968        0.6209385995        3.0622926058
 C         -5.6753768006        0.5659992513        2.6117651585
 C         -5.9638588897        0.3468755118        1.2789654674
 C         -4.9103044931        0.1987679801        0.3868935440
 C         -4.8370551037       -0.0633963478       -1.0253560222
 C         -5.7909216444       -0.2294913779       -2.0204350787
 C         -5.3643265526       -0.4584551164       -3.3141275299
 C         -4.0079853551       -0.5059216093       -3.6260109021
 C         -3.0403132371       -0.3385238266       -2.6531925259
 C         -3.4652378644       -0.1360811745       -1.3504895405
 H         -0.1124631247       -1.8276303675       -3.0807866240
 H         -0.0725820370       -3.4520716857       -4.9213368171
 H          1.4443891810       -5.3759365990       -4.8799635393
 H          3.0274065816       -5.6875421333       -3.0041649188
 H          4.5197755904       -5.4305368745       -0.7352096297
 H          5.5832870955       -4.6426366140        1.3537510636
 H          4.7956217105       -2.6036235235        2.4633338949
 H          2.9252131157       -1.2926996390        1.5274603397
 H          0.4692243749        3.3132160486       -1.3680047150
 H          1.0070824886        5.6434843833       -1.9672053483
 H          2.4877875088        6.9987492405       -0.5652301964
 H          3.5092318962        6.0515637247        1.4772877741
 H          4.2801614396        4.4241284722        3.5684644365
 H          4.5925075304        2.5490313367        5.1480114005
 H          3.4204955922        0.4244415989        4.8172107507
 H          1.9178173281        0.0910380102        2.8843537062
 H         -2.2752415905        0.5020587996        2.5527095584
 H         -4.1651185673        0.7767704047        4.1129959946
 H         -6.4801541478        0.6864555867        3.3211264259
 H         -6.9848378544        0.2860579894        0.9344518779
 H         -6.8426449380       -0.1755610536       -1.7843282581
 H         -6.0905765131       -0.5947742474       -4.1012237486
 H         -3.7055174825       -0.6741686854       -4.6488543141
 H         -1.9902096784       -0.3580540145       -2.9026488314
  71
       -120.95557386
 Cl        -1.4554830526       -2.4756608841       -1.0481877231
 C         -0.6046020813       -1.0750668112       -0.4955300207
 C          0.7848692304       -1.0940762728       -0.3193240843
 N          1.5337661330       -2.2063479165       -0.6788980795
 C          1.5816669262       -2.7668252796       -1.9449103728
 C          0.9636138009       -2.3556725762       -3.1148779949
 C          1.2037965806       -3.0879277998       -4.2627441095
 C          2.0494216589       -4.1937934340       -4.2540278322
 C          2.6922721532       -4.5879356705       -3.0969434792
 C          2.4644524997       -3.8687024852       -1.9314715853
 C          2.9705482753       -3.9737601672       -0.5892931599
 C          3.8381841968       -4.8569563037        0.0394233435
 C          4.0967155736       -4.6845126668        1.3852699610
 C          3.4886518878       -3.6611042088        2.1075597889
 C          2.6181915073       -2.7739024077        1.5026362510
 C          2.3813772433       -2.9237936958        0.1473436817
 N          1.4339886822       -0.0595906269        0.1889792033
 C          0.7931515962        1.0510186967        0.5223853899
 N          1.5588376006        2.1180155387        0.9589520762
 C          1.4775582597        3.4216705201        0.4885832724
 C          0.7521421428        3.9334473041       -0.5760538250
 C          0.8822008794        5.2812352332       -0.8577500459
 C          1.7265021673        6.1006497055       -0.1143373833
 C          2.4903807881        5.5843919143        0.9142157452
 C          2.3762328364        4.2338318054        1.2135031580
 C          3.0497261487        3.3715645589        2.1474996662
 C          4.0225852033        3.5879420672        3.1140336928
 C          4.4757187468        2.5092458149        3.8484356412
 C          3.9696334810        1.2307640841        3.6303280595
 C          2.9960094147        0.9949586720        2.6772272510
 C          2.5435374394        2.0718184126        1.9360665475
 C         -0.6049148649        1.1446196153        0.4198726240
 Cl        -1.4668116815        2.5342013226        0.9862180732
 C         -1.3191414450        0.0623926074       -0.1043445326
 N         -2.7050604269        0.0980964105       -0.2151508831
 C         -3.6078448744        0.2000796165        0.8271644005
 C         -3.3722826692        0.2546594689        2.1914172145
 C         -4.4701159409        0.3248960198        3.0286698622
 C         -5.7684100548        0.3268609996        2.5251433636
 C         -6.0061703939        0.2436575806        1.1671927608
 C         -4.9197844120        0.1745452087        0.3054599196
 C         -4.7932947497        0.0525604058       -1.1219305481
 C         -5.7084098955       -0.0062856041       -2.1645139583
 C         -5.2325566734       -0.1124418275       -3.4568893764
 C         -3.8652996426       -0.1445868826       -3.7194845346
 C         -2.9351508129       -0.0826616884       -2.6988243369
 C         -3.4103836222       -0.0016903775       -1.4000492248
 H          0.3235640381       -1.4872183783       -3.1368136913
 H          0.7289031185       -2.7919700534       -5.1862692184
 H          2.2106584853       -4.7413309113       -5.1703543785
 H          3.3644895370       -5.4323008543       -3.0955155613
 H          4.2946092352       -5.6629217408       -0.5146510059
 H          4.7712631206       -5.3583474311        1.8915914545
 H          3.6957467127       -3.5625907050        3.1626985205
 H          2.1288395274       -1.9961628612        2.0667879894
 H          0.1161985381        3.3046871053       -1.1799685010
 H          0.3211301991        5.7036073620       -1.6779611838
 H          1.7973277914        7.1490191564       -0.3618682421
 H          3.1711245966        6.2114239676        1.4693780225
 H          4.4137600821        4.5794963294        3.2839171029
 H          5.2346124346        2.6556104986        4.6023080265
 H          4.3458295808        0.4051729422        4.2157544881
 H          2.6119330531        0.0049633227        2.5008865439
 H         -2.3688292075        0.2379991825        2.5891495508
 H         -4.3166868191        0.3749268472        4.0962872665
 H         -6.5994680124        0.3843606468        3.2117858237
 H         -7.0133398951        0.2265159188        0.7797038975
 H         -6.7682975978        0.0329597470       -1.9648125178
 H         -5.9280550218       -0.1636268055       -4.2810108729
 H         -3.5241469615       -0.2166751419       -4.7414384363
 H         -1.8761846382       -0.0935994506       -2.9085361543
