  71
       -120.95934771
 Cl        -1.5187368550       -2.5353315122       -0.8965638121
 C         -0.6528289534       -1.1607069914       -0.2938177428
 C          0.7462872435       -1.1489634744       -0.1842615604
 N          1.5220639698       -2.2797368675       -0.3384467017
 C          2.6973392224       -2.3384977464       -1.0814380137
 C          3.3644512649       -1.3307690056       -1.7566367019
 C          4.5060756509       -1.6740070785       -2.4580956664
 C          4.9719113259       -2.9854087953       -2.4924185516
 C          4.3069518604       -3.9931396145       -1.8214662571
 C          3.1610099605       -3.6701086925       -1.1074740559
 C          2.2544847912       -4.4410805073       -0.2983872637
 C          2.2275615716       -5.7736566989        0.0879712695
 C          1.2368410159       -6.1912189956        0.9555166158
 C          0.3044456115       -5.2899458413        1.4597314143
 C          0.3131094721       -3.9582953421        1.0861826428
 C          1.2694680819       -3.5456957397        0.1720343454
 N          1.3984766689       -0.0130313429        0.0084282576
 C          0.7661314532        1.1345163418        0.1980426533
 N          1.5617620123        2.2516450806        0.3522310244
 C          1.3403667937        3.5174989363       -0.1728488888
 C          0.3926005475        3.9443837845       -1.0893775655
 C          0.4172424099        5.2715334328       -1.4780070249
 C          1.3739689369        6.1541610907       -0.9866237859
 C          2.3553458292        5.7212009076       -0.1160028425
 C          2.3485979333        4.3929868173        0.2859630650
 C          3.2359868829        3.6090587908        1.1036658332
 C          4.3903367840        3.9113859447        1.8132107786
 C          5.0290151435        2.8955181032        2.4972440886
 C          4.5288586167        1.5964232272        2.4804615944
 C          3.3787256536        1.2738586711        1.7831941812
 C          2.7383994389        2.2895582279        1.0940517478
 C         -0.6327907870        1.1720782235        0.3022193427
 Cl        -1.4747613117        2.5637130023        0.8994647123
 C         -1.3557186428        0.0121168948        0.0028659136
 N         -2.7459319525        0.0249166343       -0.0002801814
 C         -3.5632128103       -0.7650064310        0.7867004135
 C         -3.2191496252       -1.6830789884        1.7651104673
 C         -4.2442415034       -2.3271260492        2.4321001851
 C         -5.5792699435       -2.0543967632        2.1449259869
 C         -5.9258131676       -1.1170245700        1.1914179640
 C         -4.9128999900       -0.4605898873        0.5054162573
 C         -4.9007946294        0.5600810304       -0.5075954192
 C         -5.8976709183        1.2395447785       -1.1946204437
 C         -5.5287206696        2.1682993744       -2.1481887214
 C         -4.1875552737        2.4091698680       -2.4352733531
 C         -3.1782364371        1.7419868021       -1.7670706750
 C         -3.5442721461        0.8333387436       -0.7878236027
 H          3.0107626102       -0.3133969118       -1.7220200138
 H          5.0488009736       -0.9058021623       -2.9882393350
 H          5.8674668793       -3.2139448938       -3.0504523030
 H          4.6665555613       -5.0104941624       -1.8477942484
 H          2.9744192571       -6.4629065498       -0.2751874222
 H          1.1944662748       -7.2244511232        1.2653979223
 H         -0.4386167806       -5.6336984002        2.1637496615
 H         -0.3965139146       -3.2671964384        1.5114130539
 H         -0.3357315773        3.2674274679       -1.5054438506
 H         -0.3182811813        5.6260795116       -2.1845574794
 H          1.3581294735        7.1842671116       -1.3091913405
 H          3.1202315315        6.3951611042        0.2382343560
 H          4.7761777262        4.9193355925        1.8263965147
 H          5.9304969539        3.1078129706        3.0521812274
 H          5.0512484796        0.8214821216        3.0211305426
 H          2.9985531384        0.2656935043        1.7622923248
 H         -2.1863232645       -1.8810177656        2.0076837243
 H         -4.0044173873       -3.0531157895        3.1946582208
 H         -6.3521976645       -2.5792211396        2.6859015934
 H         -6.9610441134       -0.8932794005        0.9835615719
 H         -6.9379578820        1.0399078351       -0.9875084358
 H         -6.2888468275        2.7101257114       -2.6905086398
 H         -3.9303549584        3.1281741564       -3.1987512557
 H         -2.1408989318        1.9151607655       -2.0094118860
