55
 energy: -92.571040797060 gnorm: 0.000041659017 xtb: 6.7.1 (edcfbbe)
O            7.13308610013287       -1.49437123106359       -0.41719521936111
C            6.07176818193047       -0.93959102152211       -0.16151794173101
C            6.01137063956211        0.49565101850719        0.19015932864504
C            7.19709872417476        1.22401727408591        0.24523162376292
C            7.18769197884662        2.56859135874420        0.57226068404953
C            5.98701072327782        3.20541940377683        0.84996763332495
C            4.80147446260653        2.49461070716755        0.79759618273387
C            4.79718186385855        1.14000914482623        0.46989913275190
C            3.50930626609586        0.42282469615514        0.42403906160673
O            2.44451838375698        0.98519267338233        0.63326773940027
C            3.57613147676544       -1.01931555038982        0.10344676958717
C            2.39029226938423       -1.74083416069323        0.08426120274246
C            2.39041211832766       -3.09474792172439       -0.22637339977948
S            0.92828152235332       -4.07157039260536       -0.24658226696260
C           -0.37041448470807       -2.84528288831514       -0.21303409435274
C           -1.27738937126721       -2.84627311899984        0.83600112570349
C           -2.29667244092882       -1.91394213968567        0.86088191505638
C           -2.41650257888699       -0.97879056258287       -0.16573426653014
N           -3.43934650365383       -0.02622876842919       -0.13622755565869
C           -4.78201839260847       -0.28340233934482        0.07383150257482
C           -5.43453608914305       -1.49634718980272        0.24248600501756
C           -6.80683987535370       -1.47390381699617        0.40718713666540
C           -7.52156855754744       -0.27798650934664        0.39524321685520
C           -6.88072392548300        0.92976600036966        0.20086071843979
C           -5.50177014735602        0.93257944906668        0.03363092178049
C           -4.53770467754405        1.97153808631176       -0.20415911947372
C           -4.63188234146637        3.35272911600647       -0.31904924071536
C           -3.47590747281459        4.07995446388625       -0.52367584415672
C           -2.23611979843869        3.44828265205518       -0.59580765362875
C           -2.11704051072377        2.07551340121730       -0.48484065718208
C           -3.27841944392875        1.33741677265568       -0.30606577156315
C           -1.50948752724901       -0.99892424716018       -1.22514629316258
C           -0.49343152822164       -1.93267956027595       -1.25226254176896
C            3.59993087404496       -3.73698309824085       -0.50388167810937
C            4.77826356305026       -3.02564873334823       -0.47772882136037
C            4.79160497405368       -1.66049193262989       -0.17935529795680
H            8.12095396334306        0.70891401859066        0.02550064417036
H            8.11554176548728        3.11890635489313        0.61088859736023
H            5.97529971627294        4.25403575248692        1.10587764381623
H            3.85483821485201        2.97024270630392        1.00936663872651
H            1.47582255098922       -1.21749156936237        0.32146476863977
H           -1.17423602438872       -3.56548747068842        1.63382041971105
H           -2.99032919096313       -1.89175770648677        1.68726994397778
H           -4.89393537965513       -2.43071589482872        0.23486168453820
H           -7.33693282482497       -2.40513486226470        0.54433074256999
H           -8.59301812443769       -0.30143055604810        0.53014846978926
H           -7.43677375723075        1.85495133026823        0.17434019220685
H           -5.59058392691533        3.84379907137286       -0.24430041584824
H           -3.52702964824475        5.15480463837076       -0.61804617147542
H           -1.34577053959999        4.04346623573120       -0.73741182214313
H           -1.14737392076628        1.60215506287337       -0.51990993899057
H           -1.61630731199438       -0.29211288898135       -2.03366096316676
H            0.20430047142080       -1.95442552511895       -2.07599072444241
H            3.59788514790456       -4.79060551028653       -0.73759761315200
H            5.71999936382565       -3.50889322187976       -0.69256633354085
