55
 energy: -92.518837633777 gnorm: 0.000031029128 xtb: 6.7.1 (edcfbbe)
O            6.67309317641880       -0.85841678881427       -1.19787695436815
C            5.69737709343327       -0.32946042600518       -0.62517432236812
C            5.68474015293441        1.07474654481024       -0.24564981747205
C            6.81467191105655        1.85812836561480       -0.52656421145643
C            6.85003800786946        3.19101535844925       -0.19847205516885
C            5.75037305872954        3.78660926706152        0.42474153624503
C            4.63447648580114        3.03917702152705        0.70856915634756
C            4.57826055718315        1.67392782527324        0.38612682438688
C            3.37575067853838        0.92941397402681        0.71538529504582
O            2.38138697045539        1.45755924364126        1.25521615208970
C            3.40144666075955       -0.47993335933307        0.36176274103085
C            2.28288398610416       -1.26156595848748        0.67084081152352
C            2.23790089822161       -2.59032264744115        0.31638212163118
S            0.83503734395163       -3.58904432764649        0.73877207186903
C           -0.52467289952927       -2.49943655149512        0.46563748000092
C           -1.66141506675140       -2.65840523463471        1.25826827035573
C           -2.74548368680943       -1.82656405181127        1.08833977231687
C           -2.71227326238804       -0.81717641193052        0.12110484746078
N           -3.78789720134732        0.05114144387033       -0.02953168114626
C           -5.12204591193940       -0.31066102767397       -0.08515464485799
C           -5.69646742810608       -1.57555121829581       -0.09002842251336
C           -7.07428743112722       -1.65746082839066       -0.19176293513458
C           -7.86298131345895       -0.51587374944933       -0.30011841547321
C           -7.29213018924582        0.74677984705431       -0.33093942561909
C           -5.91465262132809        0.85214486666293       -0.22901045540209
C           -5.00283021603659        1.96929605463249       -0.25219957327542
C           -5.18149058517351        3.33991742992015       -0.34254519784650
C           -4.06233280152009        4.15660870630479       -0.30188399249615
C           -2.78724816785438        3.61960302123961       -0.15175499297701
C           -2.58535588697594        2.25350375722507       -0.05771455633299
C           -3.70094048509148        1.42863882880674       -0.13231033305656
C           -1.58360245716564       -0.68685220639863       -0.69459230581521
C           -0.50424297689085       -1.52513683600573       -0.53099458318900
C            3.33541898026266       -3.19923621156575       -0.31386022845850
C            4.44729272046478       -2.44980724561060       -0.59345007548287
C            4.50411886178071       -1.07927681148802       -0.28474760191414
H            7.64965826124140        1.37216984967687       -1.01130116385902
H            7.72797184358819        3.77875861182688       -0.42232335777220
H            5.77931238802880        4.83463722943011        0.68383533633530
H            3.76979005918244        3.47305632331423        1.19069421563546
H            1.46571512728652       -0.78019293215556        1.18903504963673
H           -1.67134897936980       -3.41934252310785        2.02252701940176
H           -3.60333755826394       -1.91914048808903        1.73578992579988
H           -5.09383255160128       -2.46823806005284       -0.03320364641509
H           -7.54573438549833       -2.62852937189508       -0.19252215045742
H           -8.93500768089634       -0.61877359634319       -0.37449234768155
H           -7.90456882204000        1.62844440178671       -0.43828336971075
H           -6.17030639269855        3.76143605552793       -0.43497825955302
H           -4.17949326370131        5.22733850181040       -0.37369940388925
H           -1.93469872689221        4.27992947752347       -0.10040047752989
H           -1.59278357913858        1.85570249487286        0.08705322072594
H           -1.57358528876994        0.05292728363444       -1.47989293582285
H            0.35355973396458       -1.42947442131411       -1.17894342385992
H            3.29121479909522       -4.24508902931954       -0.57478452338579
H            5.30922528984242       -2.88534872940004       -1.07814768586909
