55
 energy: -92.571090154260 gnorm: 0.000067796270 xtb: 6.7.1 (edcfbbe)
O            6.87271289370020       -0.81981101361230       -0.52761458116106
C            5.79078964168331       -0.32012017182109       -0.24619964760655
C            5.65729560902375        1.12055461404075        0.06014675642217
C            6.79682765668626        1.92083044096252        0.03580776104349
C            6.71835340972044        3.27363501593418        0.31642989285397
C            5.49376084289981        3.84665965769460        0.62685384217106
C            4.35363119998398        3.06389618839193        0.65420247502416
C            4.41901474559371        1.70032185708190        0.37366471377899
C            3.17714114828132        0.90580705378513        0.41175036238071
O            2.09060573284883        1.40955092664847        0.65565566824037
C            3.31733636639739       -0.53863943388676        0.12767205460432
C            2.17684394795335       -1.32848212934205        0.17659367083886
C            2.24458489476460       -2.68780445647388       -0.10140317288255
S            0.83990526835989       -3.74468091430163       -0.04040060879054
C           -0.52325455070406       -2.59068060140330       -0.04633252502919
C           -1.43673581654969       -2.61293429039121        0.99695374820475
C           -2.50541858674200       -1.73715013879733        0.99066175003541
C           -2.66794701159252       -0.83714642170599       -0.06112033116417
N           -3.74156556259643        0.05840176945301       -0.06543848511502
C           -5.07119165012847       -0.26737897749054        0.13238650558470
C           -5.65747006317420       -1.50862885889714        0.33485341327178
C           -7.03175270095974       -1.55844103252597        0.47558754320843
C           -7.81234432618509       -0.40635126952132        0.40860119934951
C           -7.23693153590222        0.82836450730768        0.18171314893112
C           -5.85744353135841        0.90362975652455        0.03722215723529
C           -4.94949022793103        1.98668483741937       -0.22353500118091
C           -5.11934478945971        3.35482320065112       -0.39369381010349
C           -4.00293874245167        4.13863158291380       -0.60870926677223
C           -2.72831553359719        3.57665828542215       -0.63701787338325
C           -2.53407568101883        2.21818376350354       -0.47082501089545
C           -3.65496936568613        1.42201394380780       -0.28277909215254
C           -1.75317574973679       -0.83619910459633       -1.11410424508919
C           -0.68814467876550       -1.71371049263949       -1.11036429247475
C            3.47829749609093       -3.26659794989836       -0.40930485928469
C            4.61268242087782       -2.48733420680392       -0.44920912248634
C            4.55653686662868       -1.11560177019158       -0.18873660041739
H            7.74041605939076        1.45461441685992       -0.20800421837228
H            7.61117752832920        3.87995513849614        0.29359015276700
H            5.42787655663350        4.90150241608531        0.84632189886027
H            3.38953913875002        3.48887441395397        0.89296780415869
H            1.24319522126612       -0.85325720675796        0.43907247721868
H           -1.30075833606670       -3.30442417579771        1.81414605350697
H           -3.20531792999480       -1.73106602402154        1.81205857720555
H           -5.06548293012002       -2.41060593050562        0.36990083833686
H           -7.51127789032506       -2.51283117833308        0.63739232749790
H           -8.88308531456338       -0.48612196944988        0.52632559032030
H           -7.84352296065722        1.71893510077153        0.11286398958392
H           -6.10523028904031        3.79322596821720       -0.35280511090085
H           -4.11351784678749        5.20431145781672       -0.74614107268961
H           -1.87069102856328        4.21606671728356       -0.78766770330717
H           -1.53878494226875        1.79988080123672       -0.47307897586760
H           -1.89170365288802       -0.15738254238172       -1.94156040850625
H            0.01527598416958       -1.71884637153966       -1.92952376575051
H            3.52941508626161       -4.32466984059351       -0.61569009872221
H            5.57225409297113       -2.92090458867637       -0.68939727179315
