55
 energy: -92.518825042787 gnorm: 0.000066055455 xtb: 6.7.1 (edcfbbe)
O            6.62840538995893       -0.84436166679968       -1.34316990910658
C            5.66704604853761       -0.34383152756566       -0.72259197101026
C            5.67052789743773        1.03639565069480       -0.26325288491805
C            6.80149736938939        1.82748065189936       -0.51720733631434
C            6.85280836852242        3.13825608360964       -0.11140305642643
C            5.76787653768330        3.70372260819361        0.56359760999436
C            4.65072622809786        2.94869758921486        0.82120288765900
C            4.57870795098535        1.60528205513899        0.41995216003749
C            3.37598941987426        0.85093908231215        0.72509554116721
O            2.39312858074353        1.35428341315757        1.30780965012071
C            3.38755616616423       -0.53701739496115        0.29445568034275
C            2.26974843424977       -1.32864937090090        0.57929510657840
C            2.21153448810702       -2.63628718945892        0.15499014373797
S            0.80593516680564       -3.64458761781411        0.54584613539549
C           -0.54469481113418       -2.53152014509314        0.32722683498604
C           -1.67785023178200       -2.70776715234491        1.12121580862770
C           -2.75305568696267       -1.85715997387685        0.99140915743344
C           -2.71450667388599       -0.81207607170452        0.06310686393412
N           -3.78130631641195        0.07239509117518       -0.05037979437974
C           -5.11956195954387       -0.27282155563259       -0.11533973608288
C           -5.70858262929546       -1.53033728049971       -0.15526582294806
C           -7.08731229151061       -1.59347474986603       -0.25890208448033
C           -7.86282799045638       -0.44042599531262       -0.33598114081618
C           -7.27744578752072        0.81591112631960       -0.33184994687095
C           -5.89891773937597        0.90243703889864       -0.22675401118716
C           -4.97466586906957        2.00949585400957       -0.21959172534320
C           -5.13804910281933        3.38382077380909       -0.27479919752645
C           -4.00976755658141        4.18663617450116       -0.21454789914710
C           -2.74073914528559        3.63156543328476       -0.07935353159389
C           -2.55424334829056        2.26140397047278       -0.01949151405317
C           -3.67901443706169        1.45119828080236       -0.11505739531143
C           -1.58943135040127       -0.66321130079413       -0.75454361087301
C           -0.51876919440890       -1.51888162612379       -0.63030510386587
C            3.29516574198977       -3.21586726135696       -0.52469817326195
C            4.40626016437929       -2.45744547265076       -0.78291300682180
C            4.47606276540071       -1.10588719667517       -0.40176642260534
H            7.62470054014262        1.36512499024531       -1.04337887924962
H            7.73156934233150        3.73213372206057       -0.31483652876112
H            5.80939200286163        4.73449874245399        0.88320907919824
H            3.79716468337983        3.35934430980473        1.34190866034710
H            1.46328693765379       -0.87180534520852        1.13512813418717
H           -1.69198802165128       -3.49794806408435        1.85515712814568
H           -3.60743599150554       -1.96438039576846        1.64126500965250
H           -5.11664833330341       -2.43134371113975       -0.12362134554336
H           -7.56978206183249       -2.55873533454793       -0.28633568835567
H           -8.93593779268973       -0.52876408225140       -0.41344904048743
H           -7.87946707654693        1.70733093857772       -0.41496283459455
H           -6.12215657229094        3.81845565353420       -0.35579290325002
H           -4.11479665723677        5.26007127317369       -0.25960060810303
H           -1.88072030766100        4.28071158560083       -0.01213195715138
H           -1.56616014615922        1.84905973462530        0.11480244863699
H           -1.57604188138373        0.10590176542045       -1.51106510456696
H            0.33622992434203       -1.40748994863949       -1.27939553715822
H            3.24101761600542       -4.24615453532234       -0.84002023405983
H            5.25741107601540       -2.87020738097071       -1.30509747995249
