86
 energy: -140.921978733964 gnorm: 0.000147047599 xtb: 6.7.1 (edcfbbe)
C           -5.02194218754695       -5.99468362963383        0.88338356839054
C           -5.58078509297110       -5.23622193965598       -0.31994266712661
N           -5.81175163677985       -3.85057309952694       -0.01128084383676
C           -6.96604521182143       -3.33446006153790        0.53773970540040
C           -8.15866418090832       -3.96925360082971        0.85252049600096
C           -9.17664899358237       -3.20207209657271        1.38800508783720
C           -9.01998071789327       -1.83623122631777        1.60859149020497
C           -7.83348875268970       -1.19821034475136        1.30139042995164
C           -6.79735880039317       -1.94845139695944        0.76565647630615
C           -5.45957220957668       -1.62956915417093        0.34570455495875
C           -4.72894790374498       -0.46157430350467        0.32988946246717
C           -3.40142196919545       -0.47858712711551       -0.13372098879686
C           -2.64437685130918        0.73492412426300       -0.18921527168395
C           -3.37864692960941        2.00529326899774       -0.29781396819784
C           -3.06192143747242        3.06036215850707        0.61708802052103
C           -2.50058656824156        2.77252220621887        1.87653180670274
C           -2.16261403480791        3.78113731370384        2.74964185497963
C           -2.35453002510739        5.11068821058200        2.39772928622058
C           -2.88606977414041        5.41734906109012        1.15260602698250
C           -3.23700502938782        4.41553712735441        0.27516046786910
C           -4.38335812933665        2.12361258195553       -1.31045936034551
C           -4.32539945413393        1.32934328962291       -2.47253488253443
C           -5.31103388779585        1.40069788584270       -3.43039881206048
C           -6.39601162130783        2.25055318213517       -3.26238876738433
C           -6.48330023554892        3.02707953018434       -2.11490400308936
C           -5.49792035616314        2.97110790890108       -1.15483230840915
C           -1.22388460381465        0.77528797913079       -0.13932782841367
C           -0.51174621599787        1.87856589560288       -0.66213975908829
C            0.85317781969558        1.95332793429510       -0.57826162338137
C            1.60192155782127        0.93936933609340        0.03845995935843
C            3.05245350218869        1.01323214645821        0.12838499693422
C            3.71745438767969        2.24331861203929        0.24194119266315
C            5.09372846313165        2.30634411397057        0.32895367298836
C            5.84176213164523        1.13908680610482        0.31776439560503
C            5.20119981950876       -0.08076469799523        0.20192448508511
C            3.83048195649362       -0.15275520124381        0.10071404935346
S            6.16047006506129       -1.59413317346722        0.15859243115474
O            6.64805998247968       -1.90626407252678        1.46756684171112
O            5.37148521357422       -2.60072529192757       -0.50557359240975
C            7.54333620089389       -1.19191601246233       -0.91705698419080
C            7.96183829735075       -2.10833992349237       -1.86510202424154
C            9.03306684693581       -1.79708985390915       -2.68841386036386
C            9.66956644325927       -0.57023262238326       -2.56904009484067
C            9.23722366396348        0.34926366343117       -1.62577484083842
C            8.17607748981363        0.02831888857610       -0.79815157998726
S            7.62246727970112        1.21146472373201        0.43782188160650
O            8.05217704873921        0.77459049094848        1.73169723650308
O            8.04585896904211        2.51952568286673        0.00812612646906
C            0.90195569119606       -0.14952762144659        0.57958668799934
C           -0.46326572678801       -0.23108481833645        0.49862299888674
C           -2.86488807625962       -1.70231265036788       -0.60583025323953
C           -3.58623421628345       -2.87050062303565       -0.60572949515329
C           -4.89064342326056       -2.84509523801818       -0.11706953685950
H           -4.85796394940602       -7.03752883677564        0.62609231605782
H           -4.07672746650782       -5.55810378810626        1.19741924934998
H           -5.71856729909368       -5.94416390477862        1.71699135694303
H           -4.87999632901567       -5.29309383734963       -1.15718777442695
H           -6.52675743875028       -5.68202358927863       -0.63864135735428
H           -8.29763579024914       -5.02761681863808        0.69100636430332
H          -10.11433554279668       -3.67373220366143        1.64213892626304
H           -9.83963372183308       -1.27233365599291        2.02784171298427
H           -7.70992912379221       -0.13964475379733        1.47267115398978
H           -5.15925357729104        0.45634288517914        0.69961844748485
H           -2.36128769196671        1.74092676584206        2.16469097203564
H           -1.74526122790658        3.53564793352256        3.71540350337549
H           -2.08398251707985        5.89974617132946        3.08292129767910
H           -3.01793449560721        6.45040870165872        0.86420012286557
H           -3.60616177831294        4.66824300597328       -0.70799677964088
H           -3.47664980992632        0.67771483300051       -2.61965197510661
H           -5.23856914107485        0.79124038486061       -4.31967677492786
H           -7.16981681381284        2.30112863709585       -4.01342326398173
H           -7.33577652660228        3.67483049243150       -1.96831042476390
H           -5.60128847646596        3.54513699583800       -0.24571531678237
H           -1.06014536230546        2.65906560885363       -1.16855342246507
H            1.36431331464871        2.79175724990382       -1.02753793742612
H            3.14192803786041        3.15514168651867        0.28505054965925
H            5.61564097248041        3.24693494871554        0.40927588996979
H            3.38353843196145       -1.12571950132661       -0.02914373705453
H            7.43452995260304       -3.04630283980971       -1.94061922111407
H            9.36942564893684       -2.51116224898678       -3.42463049265457
H           10.50181412072507       -0.32831764244901       -3.21237999407938
H            9.69935779882320        1.31764845673904       -1.51518565350507
H            1.44718682732422       -0.91686487577918        1.10846254417534
H           -0.97657845561302       -1.04922742286906        0.98159158139933
H           -1.87128861424218       -1.70092515417777       -1.02762560361906
H           -3.14661847752656       -3.77965591429516       -0.98806040460237
