86
 energy: -140.922153752125 gnorm: 0.000051805599 xtb: 6.7.1 (edcfbbe)
C           -7.34718838803361       -3.89353212339504       -2.80500420183807
C           -7.50399201275912       -3.52578928824792       -1.32987044894433
N           -6.23030723761471       -3.29095814142364       -0.70480497481787
C           -5.43350526207524       -4.25526689908258       -0.12560452987038
C           -5.66490062861268       -5.61280332072967        0.04187925372761
C           -4.68909745743358       -6.36083204616547        0.67413190901033
C           -3.50749528756926       -5.78092905770615        1.12848055168134
C           -3.26844150833233       -4.43042663639917        0.96152918415751
C           -4.23490487161142       -3.65945929062427        0.33223613091982
C           -4.31791975941468       -2.26660693618078       -0.01614608084880
C           -3.46486756797279       -1.19836721383986        0.16498629581623
C           -3.84234247241836        0.07379026960075       -0.29920769368954
C           -3.01525600182889        1.22353426887277       -0.09247570523776
C           -3.66712626519387        2.54114751185422       -0.00443897572622
C           -4.72943726823033        2.70609136506461        0.94059542031551
C           -5.76612963414367        3.63856278377539        0.74110895736838
C           -6.80367737327815        3.74520662085678        1.64033225603347
C           -6.84759839878032        2.93557019436015        2.76710972854334
C           -5.84319614850873        1.99960600215985        2.97467648330333
C           -4.80666247405085        1.87783843796693        2.07749415327986
C           -3.20863340249558        3.58776602198664       -0.86646289835919
C           -2.56543003225929        3.28037990552654       -2.08150473143201
C           -2.09429734465369        4.27594882020559       -2.90645400775533
C           -2.22905127688382        5.61051931672465       -2.54703869885684
C           -2.83678056772418        5.93468061643232       -1.34191344382454
C           -3.32080843125318        4.94667762203702       -0.51342938695005
C           -1.60112094235062        1.15904219766809        0.03719744155331
C           -0.88822950897081        2.19140799460397        0.68820963154430
C            0.47726727776258        2.16328381472341        0.79023116513183
C            1.22734839147635        1.11105472178391        0.24330836202193
C            2.67793260677636        1.07504461171664        0.36001482855151
C            3.43870809573473        2.25337704270590        0.38841754280402
C            4.81412074557931        2.21391022729003        0.50058818730500
C            5.46533927249484        0.99399431070534        0.59821758187727
C            4.72998853093193       -0.17627826531861        0.56684332607390
C            3.35937128617346       -0.14712457778848        0.44322400720484
S            5.56297916329883       -1.76024679482441        0.66978419292944
O            6.00653637320260       -2.00365029653716        2.00839119814145
O            4.70380570058209       -2.74989423155749        0.07048750651561
C            6.98886530629416       -1.55922819038680       -0.40696872424630
C            7.34494620890694       -2.58197185919859       -1.26780991878824
C            8.45000281063366       -2.42741239830301       -2.09079233480680
C            9.18337017977229       -1.25032608528251       -2.05806293790345
C            8.81418219808848       -0.22391938454555       -1.20225235166891
C            7.71798772997182       -0.38842749105943       -0.37444625637621
S            7.24447795964537        0.93404510174540        0.74840935979981
O            7.61817253821385        0.57392673313692        2.08256272914653
O            7.77866042405092        2.16397131920243        0.22224128333703
C            0.53042300659514        0.09532063895808       -0.42810740330378
C           -0.83567591747652        0.11645286971934       -0.53299729262848
C           -5.10390441266008        0.21930621348989       -0.92750369725285
C           -5.95753927170705       -0.83718015393811       -1.12227645441423
C           -5.56843205296839       -2.09461767508624       -0.66470317021021
H           -8.32136316491709       -4.06852178189410       -3.25343927004311
H           -6.85272746380500       -3.08800414434725       -3.34300148346718
H           -6.74708131516356       -4.79477459419397       -2.90665008403862
H           -8.11081474705344       -2.62173725929980       -1.23089928246428
H           -8.00902130656844       -4.33357958256792       -0.79347981460970
H           -6.57208362454436       -6.08081295866948       -0.30966044640536
H           -4.84609367480957       -7.41980208727808        0.81618488282142
H           -2.76942490156324       -6.39977459127544        1.61586192093037
H           -2.35109262534364       -3.98156636786384        1.31082784156731
H           -2.54188273182671       -1.32762555585152        0.70847073635740
H           -5.76921305149555        4.24133995693989       -0.15512974317276
H           -7.59412521185832        4.46010698144838        1.46133825850494
H           -7.66089868898241        3.02703581824308        3.47114661202516
H           -5.87381983102389        1.36267919515491        3.84686656353391
H           -4.02132618897531        1.15801097515433        2.25527725438029
H           -2.46791348628600        2.24520252312297       -2.37454444850759
H           -1.61638266153089        4.01642834058447       -3.84009695736600
H           -1.85493734208857        6.38922351387822       -3.19437380822084
H           -2.92369405250825        6.97022640083794       -1.04553700836266
H           -3.74869756689135        5.21040050924651        0.44251356999996
H           -1.44239127553492        2.99823442145075        1.14466747024144
H            0.98172653497486        2.94699686580343        1.33531868860668
H            2.94282694508418        3.20722299394971        0.29451316323623
H            5.40999172417395        3.11307972653999        0.50493986399682
H            2.83340285607080       -1.08853000191708        0.43158880481906
H            6.74376683942339       -3.47753293581274       -1.27773783238100
H            8.73724164105166       -3.22482467002675       -2.75913819438235
H           10.04210113613694       -1.13051655116029       -2.70093177646365
H            9.35278876080943        0.70976261361023       -1.16093527208104
H            1.08429872941465       -0.69867831526301       -0.90646139357103
H           -1.33597572510262       -0.64750431802690       -1.10938278589998
H           -5.38456781134101        1.19737449013795       -1.28888593846392
H           -6.90339228259799       -0.68776933848408       -1.62102469009867
