86
 energy: -140.981008895004 gnorm: 0.000048269291 xtb: 6.7.1 (edcfbbe)
C           -8.14753501867804       -2.05024282418197       -0.28415848755284
C           -7.07865434091244       -2.60843876326585       -1.22327074130248
N           -5.77645978005260       -2.59295275116405       -0.61376056474740
C           -5.24057489596026       -3.59391327469424        0.16262593552991
C           -5.75537684449044       -4.84338390670023        0.47992952604648
C           -4.99278524113449       -5.67360461504732        1.27857891545499
C           -3.74541485700199       -5.27912547983435        1.75771931563900
C           -3.22797040335208       -4.03681456125487        1.45058853900069
C           -3.97641976226911       -3.18399163980298        0.65046415419137
C           -3.76306822937717       -1.85522750087353        0.15170540544723
C           -2.73304981553214       -0.93922903348283        0.29253234952148
C           -2.84576845111184        0.30579985797166       -0.31431894513481
C           -1.76105768715254        1.29043280046606       -0.17450266500736
C           -1.99443120956233        2.60120344365694        0.06935414139399
C           -0.93214527211736        3.61741235119170       -0.00365480589376
C           -0.03450877355946        3.64426056056726       -1.06980756834098
C            0.95084757725686        4.61059414540915       -1.13274959619002
C            1.05443511767076        5.56758363230321       -0.13636303334899
C            0.15699949780952        5.56010515211647        0.91854310858699
C           -0.83299246399014        4.59777012500785        0.98207681898061
C           -3.32913241081781        3.11330077675092        0.41931898675004
C           -3.80466095285807        4.28555940286509       -0.16554639851618
C           -5.04971841892458        4.78330641042996        0.16969128501160
C           -5.83282326587894        4.12739208758641        1.10481519757673
C           -5.36047680883342        2.97233345577381        1.70684055161763
C           -4.11970754278372        2.46788600934294        1.36876254473111
C           -0.40068565723190        0.75533114771579       -0.32536073771692
C           -0.11586642040541       -0.16578414475126       -1.33323281244570
C            1.15648458205307       -0.67554699927815       -1.48602205451976
C            2.18740056984147       -0.28240896335386       -0.63322874238266
C            3.54796717492519       -0.79934631529852       -0.81212706727940
C            3.77473332755910       -2.12954167324925       -1.17518882347225
C            5.06031933503101       -2.60960157293481       -1.34880980015720
C            6.13982265113424       -1.76067514394325       -1.17416317027203
C            5.92887667255157       -0.44534837014981       -0.81215826590977
C            4.65077725596492        0.03728377666904       -0.62328345378177
S            7.32413594802883        0.65953259261453       -0.58089508684302
O            7.86550194537245        1.03367798246849       -1.85112702235534
O            6.90427765999952        1.71972080924613        0.29830798505956
C            8.52149184920819       -0.34264091043736        0.30971190628278
C            9.23107538729905        0.21482238175045        1.35841905972011
C           10.16444242268477       -0.55480668590511        2.03590621427866
C           10.37363784615763       -1.87675728937742        1.67122817433831
C            9.65032989098109       -2.43375890610073        0.62760053270387
C            8.72950562186004       -1.65733742274392       -0.05298288208001
S            7.80608373191263       -2.37113935264301       -1.42019858386684
O            8.32824831314853       -1.87331751577667       -2.65582217217673
O            7.78643842645541       -3.79886472946367       -1.23622658984760
C            1.89773884285718        0.61942423140429        0.39126674233389
C            0.62412844562667        1.12231048126021        0.54756040506589
C           -3.97950863047018        0.60448134318608       -1.08435678153924
C           -5.01164547351970       -0.29474506525082       -1.24276993103514
C           -4.90784099303883       -1.52985333951434       -0.61552332346459
H           -7.91066569261763       -1.02349159440439       -0.01461859914854
H           -9.12077431073348       -2.07100288096216       -0.76721927607416
H           -8.19456340100175       -2.64343996886740        0.62620613763089
H           -7.32076661751088       -3.63874159022558       -1.49747544272057
H           -7.03925819947376       -2.01438896439409       -2.14063680093987
H           -6.72168095248891       -5.16496049339951        0.12108536023710
H           -5.37309382617131       -6.65042484480048        1.53919250316951
H           -3.18071173462732       -5.95796242071860        2.37929942880348
H           -2.26214398876370       -3.72929470302081        1.82282593802419
H           -1.86095648529476       -1.18112691446352        0.88256278373264
H           -0.12167881035868        2.90889029237132       -1.85638366259195
H            1.63990091061590        4.61982628528518       -1.96451049502840
H            1.82784018534032        6.31946707633057       -0.18541812658410
H            0.22836203714017        6.30827164890864        1.69465037819243
H           -1.53088533997091        4.59081342506277        1.80766517400429
H           -3.19496009437219        4.79762519093678       -0.89670420285722
H           -5.41006041552532        5.68780469488688       -0.29863082738880
H           -6.80473127842018        4.51808063736510        1.36820039843338
H           -5.96156775280202        2.46427467549314        2.44709549710026
H           -3.74993716493201        1.57378681140815        1.84864674862679
H           -0.90159205675509       -0.46627629073979       -2.01132157262969
H            1.36369305665760       -1.36063976210396       -2.29469661536341
H            2.93489567465223       -2.79575668744073       -1.30210258438057
H            5.25341145092225       -3.63768026477915       -1.61220262238420
H            4.53075518274318        1.07244486290382       -0.34412648598311
H            9.03274390988111        1.24113237701935        1.62462440785626
H           10.72684656848427       -0.12303397437946        2.84965375240528
H           11.09906775401742       -2.47527658125142        2.20075898997343
H            9.77744047688607       -3.46179844755512        0.32677892446236
H            2.67466613704900        0.90644034900847        1.08389756018450
H            0.41250518338083        1.80368943100132        1.35775583877907
H           -4.03599631695063        1.56439240131914       -1.57523963493342
H           -5.87152456135080       -0.03476898315446       -1.84154956061951
