55
 energy: -101.704449559436 gnorm: 0.000113329891 xtb: 6.7.1 (edcfbbe)
C            5.13461785182334        5.32435420852642        0.00351535698231
C            3.65046620691549        5.13644078055034        0.00107164122517
C            3.06058715832927        3.88671843451634       -0.00055679253646
C            1.66900271405180        3.73932648848637       -0.00132834434503
C            1.08174150524886        2.42032023179093       -0.00204940285321
N            1.89698438322424        1.35695374863887       -0.00311882978287
C            1.40709270783228        0.14607320555485       -0.00209840875964
N            2.13616090161300       -0.93776930707924       -0.00291067414825
C            1.55781521012805       -2.14629876011535       -0.00134655642461
C            2.40517426909133       -3.31537489597034        0.00009730284587
C            3.79678022926057       -3.17780641636473       -0.00113987745596
C            4.59678189099203       -4.30044349186986        0.00126127972903
C            4.00255631551561       -5.55083219859443        0.00514561810971
F            4.79675899503576       -6.64266561957585        0.00769605416282
C            2.61949562943209       -5.73045787630205        0.00618195578246
C            2.03701035645705       -7.10839332756430        0.01168611595351
C            1.83454718061976       -4.59313101955330        0.00346946060300
N            0.22927800026669       -2.32055303284010       -0.00065680140184
C           -0.57425705751803       -1.29075604115338       -0.00016144819590
N           -1.87738069851754       -1.38053080727665       -0.00003424062233
C           -2.63490996297435       -0.27543295895803        0.00035391805247
C           -4.07094917164966       -0.42553558216088        0.00105185620533
C           -4.64639639349087       -1.70004827696806        0.00056662998706
C           -6.01847837400019       -1.83293644457731        0.00104596248788
C           -6.80530052003074       -0.69386260756782        0.00211616506268
F           -8.14781932855288       -0.83699678492270        0.00259519748228
C           -6.27055983712291        0.59422571439676        0.00281008840002
C           -7.17394526724885        1.78665688590324        0.00427887482516
C           -4.89323231447884        0.70674917770468        0.00220298880820
N           -2.12160687740218        0.96218502000483       -0.00011358161767
C           -0.82800348835758        1.14334199419969       -0.00041129185694
N           -0.25408359047569        2.31661415387159       -0.00135574058685
N            0.00162195692122       -0.00048903706781        0.00074055790535
C            0.85184119637668        4.87417735204167       -0.00084018464030
C            1.42144601057746        6.12946740598295        0.00054585076589
C            2.80120155300493        6.24273241673999        0.00167024972260
F            3.34724866183929        7.47751782403554        0.00319562488863
H            5.44234418257688        5.87250971811817        0.89322947955606
H            5.44124304301353        5.90985928974281       -0.86228722991479
H            5.64388834198468        4.36549733681361       -0.01657053923953
H            3.67043947859679        2.99652407832552       -0.00112144018404
H            4.22421028364165       -2.18817802339434       -0.00395869244750
H            5.67287431718629       -4.22620798422290        0.00034006145562
H            2.39198801258189       -7.67063073039502       -0.85103585792207
H            2.35387120973637       -7.64652265617537        0.90432570859936
H            0.95212715869976       -7.06749681731980       -0.01166016327168
H            0.75852358135555       -4.67395937055354        0.00404131199250
H           -4.00217281375706       -2.56436159173959       -0.00024698798724
H           -6.49126334683217       -2.80245183416129        0.00059703861250
H           -6.59682687757303        2.70649255372390        0.00296528894478
H           -7.81676817622253        1.77022804152290        0.88354768837146
H           -7.82030678046973        1.76982372089773       -0.87236586646832
H           -4.42617073500241        1.67949695805158        0.00260974136568
H           -0.21866135049637        4.74731186079109       -0.00159491256819
H            0.81726999749779        7.02302868131828        0.00086124739953
