  55
       -101.70090660
 C          5.1375940176        5.3128534712        0.0049017004
 C          3.6528861819        5.1294738398        0.0035970546
 C          3.0594774073        3.8816882054       -0.0043229795
 C          1.6672631366        3.7380134709       -0.0038546711
 C          1.0780667763        2.4204995205       -0.0101155908
 N          1.8932209095        1.3569317941       -0.0143669680
 C          1.4022584117        0.1464072164       -0.0211791542
 N          2.1322362798       -0.9370175016       -0.0153453564
 C          1.5539516014       -2.1455145610       -0.0113954316
 C          2.4029355392       -3.3128067634       -0.0061083874
 C          3.7944031018       -3.1713334961       -0.0107896463
 C          4.5976294878       -4.2914008914       -0.0041013232
 C          4.0068848297       -5.5435068808        0.0074986515
 F          4.8042105769       -6.6329967145        0.0145747654
 C          2.6242470956       -5.7270937205        0.0118110442
 C          2.0463524147       -7.1068814914        0.0264380922
 C          1.8358654133       -4.5922522318        0.0048128655
 N          0.2255119270       -2.3201956758       -0.0060613808
 C         -0.5774821130       -1.2894878514       -0.0131354716
 N         -1.8807259330       -1.3801077300       -0.0016109860
 C         -2.6381405928       -0.2748092325       -0.0014592248
 C         -4.0736906359       -0.4248630241        0.0025457179
 C         -4.6491729177       -1.6995258858        0.0022369837
 C         -6.0211037662       -1.8324577056        0.0034462263
 C         -6.8080763150       -0.6933393050        0.0048669907
 F         -8.1504744719       -0.8364425418        0.0048770735
 C         -6.2733987659        0.5948651961        0.0056330646
 C         -7.1772552497        1.7869274664        0.0067030054
 C         -4.8962723209        0.7075381627        0.0047916800
 N         -2.1250708739        0.9629851845       -0.0014188742
 C         -0.8312068072        1.1434324939       -0.0128567301
 N         -0.2578597762        2.3172982306       -0.0054682047
 N         -0.0022660458       -0.0001009661       -0.0370432972
 C          0.8531399557        4.8752307387        0.0039312736
 C          1.4264148658        6.1287161229        0.0122810558
 C          2.8066077647        6.2381670190        0.0124446638
 F          3.3560685086        7.4713497760        0.0213657204
 H          5.4498309439        5.8419050190        0.9045534346
 H          5.4433385749        5.9147003751       -0.8498582316
 H          5.6437165618        4.3529664064       -0.0356968311
 H          3.6663419294        2.9895243566       -0.0113247660
 H          4.2184223320       -2.1801937080       -0.0192338830
 H          5.6734761564       -4.2141028293       -0.0071009153
 H          2.4185532546       -7.6801736471       -0.8215176743
 H          2.3491662143       -7.6308381190        0.9323458111
 H          0.9619109698       -7.0702933587       -0.0160122194
 H          0.7600954213       -4.6758710078        0.0066022200
 H         -4.0044697466       -2.5635216011        0.0012338937
 H         -6.4939867762       -2.8019332506        0.0027203009
 H         -6.6004998311        2.7068888219        0.0051972587
 H         -7.8202450828        1.7706207373        0.8857534546
 H         -7.8233514921        1.7694964370       -0.8700691714
 H         -4.4287009263        1.6801890703        0.0063682520
 H         -0.2177329963        4.7508495774        0.0049920490
 H          0.8250020777        7.0240466492        0.0197755454
