55
 energy: -101.768674148028 gnorm: 0.000042216382 xtb: 6.7.1 (edcfbbe)
C            3.96801129216712        5.83230437313959       -0.00679380338731
C            2.53375143218993        5.40769620590655       -0.00544534397500
C            2.15228628297755        4.07781554620365       -0.00503010730041
C            0.80507308675450        3.71273529473288       -0.00391542801566
C            0.43581004264987        2.30272516779753       -0.00316604324448
N            1.42694893933167        1.41298690690921       -0.00518571950998
C            1.10921015853522        0.13371982492041       -0.00365207535697
N            2.03357115828269       -0.80579451349504       -0.00449661935618
C            1.63289745394951       -2.07616549109422       -0.00170249942402
C            2.66783601905710       -3.10237908118235       -0.00094237423417
C            2.31372575519777       -4.45173090808156        0.00282193819200
C            3.29993893323801       -5.41690525005451        0.00438055202819
C            4.62613036582234       -5.02116700022166        0.00201988257927
F            5.58175120804939       -5.97297354569437        0.00388277147748
C            5.01807809513994       -3.68329317720500       -0.00183930507755
C            6.46913918246675       -3.32015606266141       -0.00476252680550
C            4.01361806225698       -2.73190925300767       -0.00328109016896
N            0.36699738501015       -2.48924418977725        0.00085289943104
C           -0.58211393979351       -1.57483260272192        0.00113556742014
N           -1.85785218208074       -1.90520520494952        0.00314399837200
C           -2.75766415991988       -0.92344531310071        0.00366397565006
C           -4.16332794025806       -1.30809875946694        0.00481935479592
C           -4.51907625820579       -2.65703965251690        0.00460104849257
C           -5.85261334555800       -3.01179469625627        0.00518156640974
C           -6.81233560704942       -2.01458711615219        0.00607815088318
F           -8.11259290328467       -2.37298918245211        0.00641773129874
C           -6.49514132955637       -0.65702279217309        0.00633778223591
C           -7.57931797410961        0.37346929588710        0.00783360812487
C           -5.15252784526956       -0.32322543383354        0.00568931279107
N           -2.48240042626326        0.37979141924434        0.00293636620215
C           -1.21596362075110        0.74423870931647        0.00070856773039
N           -0.86427085652732        2.01452190900030       -0.00033276932072
N           -0.22949171455076       -0.23217507374937       -0.00063844388709
C           -0.18572203704450        4.69475313177536       -0.00320638782017
C            0.17295607942458        6.02725032975314       -0.00369317762682
C            1.51618216299327        6.36060451304110       -0.00483797460053
F            1.85516732077732        7.66608894972155       -0.00511443138541
H            4.17916885628858        6.44800218269779        0.86663601189725
H            4.18120526510220        6.43455654627272       -0.88911714450779
H            4.62438916489432        4.96740073666159        0.00035663326639
H            2.89458622396019        3.29514729727990       -0.00547579760043
H            1.26925489305869       -4.71703107309342        0.00449783134406
H            3.06107191785535       -6.46874578601331        0.00745002515132
H            6.96540578698888       -3.74513306993846        0.86680790526421
H            6.95719799424392       -3.72858984566655       -0.88888568681066
H            6.59504307726418       -2.24172809815980        0.00442282975891
H            4.25508404761750       -1.68058564583167       -0.00614371966670
H           -3.74045366707231       -3.40206923170788        0.00399056948782
H           -6.16241102464459       -4.04498233957161        0.00490445492139
H           -7.15783883969893        1.37403937339540       -0.00459583327741
H           -8.20409317410298        0.26074038640461        0.89307377743295
H           -8.22158331191591        0.24558251438762       -0.86260422039071
H           -4.84526832246894        0.71079156272856        0.00577394956470
H           -1.22005327307552        4.39233307339164       -0.00237179630397
H           -0.56737589035190        6.81170313926984       -0.00318974314046
