55
 energy: -101.704450146568 gnorm: 0.000071381678 xtb: 6.7.1 (edcfbbe)
C            2.67343429354149        6.89418175012715       -0.00183336182481
C            1.37695970223291        6.14774713723847       -0.00238302787284
C            1.31562587316380        4.76719900810520       -0.00377228150682
C            0.08903554565218        4.09362569826307       -0.00375286747992
C            0.05781434040129        2.65011615487541       -0.00465640236522
N            1.22138319657604        1.98571967964502       -0.00398288416756
C            1.23891842084777        0.67962316581208       -0.00374936000678
N            2.33111488723728       -0.03677713147566       -0.00232703456760
C            2.26651789397127       -1.37503741926694       -0.00152483740340
C            3.50120453145818       -2.12354265130615        0.00064575046643
C            4.73002899015821       -1.45607368612898        0.00238503891206
C            5.90340156105891       -2.17960013461246        0.00487170220017
C            5.84163156616448       -3.56261440094547        0.00558813766250
F            6.99761442548603       -4.26015338329373        0.00809031282571
C            4.63702415036593       -4.26550237157538        0.00377579996244
C            4.63590336039913       -5.76149845731043        0.00485786761392
C            3.47178379246897       -3.52259496753454        0.00130736706856
N            1.10936754643346       -2.05055577383506       -0.00218110675093
C           -0.03054348692340       -1.41270488294020       -0.00360816059240
N           -1.19707501345386       -2.00038280956873       -0.00382468413778
C           -2.32369497394777       -1.27520819154698       -0.00511927526004
C           -3.58943620905438       -1.96990934587880       -0.00495111777988
C           -3.62640258126345       -3.36781245817728       -0.00166018858126
C           -4.83998404187246       -4.02167772534034       -0.00107657537971
C           -6.00651251887196       -3.27618908860911       -0.00386382397328
F           -7.18887068301176       -3.92803201006408       -0.00326128317631
C           -6.01232859690924       -1.88152639880734       -0.00743706395965
C           -7.30697397895857       -1.13192730394534       -0.01003682631316
C           -4.78605034583194       -1.24441032105861       -0.00785655644604
N           -2.33012485413845        0.06468124677641       -0.00609992298750
C           -1.20778328024296        0.73291135397747       -0.00561615757310
N           -1.13347078937393        2.03699860943752       -0.00557509375020
N            0.00020108872954       -0.00005838367092       -0.00484420556565
C           -1.10313023775762        4.82454137749710       -0.00246397706400
C           -1.06265063780746        6.20246601992336       -0.00100148775561
C            0.16621040652167        6.83999990775605       -0.00088465271978
F            0.19283422275255        8.18987148455282        0.00060392495854
H            2.74264729243196        7.52656464313117        0.88245752345638
H            2.73324818069067        7.54486631067622       -0.87335237742495
H            3.51344068656459        6.20611140569882       -0.01318052228504
H            2.22198251423520        4.18164346702285       -0.00490381136520
H            4.73925804584955       -0.37812649884760        0.00181462626523
H            6.86607047350874       -1.69302890797917        0.00631617561256
H            5.15333759237099       -6.13715464004417        0.88677364614163
H            3.62015725764698       -6.14541502184677       -0.00172916930675
H            5.16554897868960       -6.13860931067109       -0.86910817672892
H            2.51170290370303       -4.01513886678919       -0.00013482333277
H           -2.69773364321394       -3.91519228778141        0.00047559503499
H           -4.90041612478300       -5.09863074510949        0.00153711537244
H           -7.13104623190966       -0.06045378818725       -0.02321985507660
H           -7.89040357872507       -1.38644736973108        0.87398882840604
H           -7.89925871769588       -1.40714485936631       -0.88179666043014
H           -4.73209076191055       -0.16671041566539       -0.01050491363721
H           -2.04149032399423        4.29394022206037       -0.00253472694725
H           -1.96512641139403        6.79324737456495        0.00011360836564
