70
 energy: -121.444103654303 gnorm: 0.000036428703 xtb: 6.7.1 (edcfbbe)
O           -6.51969847759523       -0.97479497803917       -1.02405876526456
N           -5.83745319140074       -1.68245812421186       -0.31314102190287
O           -6.26216735517615       -2.59245107659048        0.36748529073437
C           -4.42249945356266       -1.42332786068306       -0.27362217824590
C           -3.89246516877197       -0.39515434407175       -1.04602487002231
C           -2.54075677767716       -0.13744791596588       -0.99412429238755
C           -1.70547434216894       -0.89714215579635       -0.16876615597141
C           -0.26615459227182       -0.62642217211827       -0.08214576316552
C            0.26175364924278        0.62936019274606       -0.08670631204017
C            1.70167518192636        0.89681149947382       -0.17748326004785
C            2.25379329421409        1.94548762971527        0.56478541211287
C            3.60615756072151        2.20210784034083        0.51752445062429
C            4.42022346087524        1.41332284980335       -0.28731546023789
N            5.83619892205328        1.66678298284176       -0.32864105815831
O            6.51452399163217        0.95701904642150       -1.04118482194378
O            6.26556929165288        2.57427869209765        0.35236657173650
C            3.88546448094775        0.38593677042888       -1.05748709450291
C            2.53293361963478        0.13312013076344       -1.00316404695927
N           -0.55835499496439        1.74782659977418        0.07539926011273
C           -1.55683740359193        1.90703185454161        1.02354888602948
C           -1.88811942746203        1.10131531815017        2.10184539810335
C           -2.92434380970178        1.51157483852213        2.91896272543058
C           -3.61109793390256        2.69915025039315        2.68039969216790
C           -3.26101318579227        3.52280186483423        1.62909020060638
C           -2.22216977861408        3.13106938522723        0.79556985848048
C           -1.58998937746998        3.73846631229532       -0.34451323153531
C           -1.80556179062998        4.92159824243903       -1.03781120778640
C           -1.00350240357386        5.20470050788347       -2.12603795007011
C           -0.00551606444144        4.32210842707626       -2.53084877824821
C            0.22584845532573        3.13663103958295       -1.85788592579548
C           -0.56508708747377        2.85824833839169       -0.75418580044316
N            0.55645288078469       -1.74264854548322        0.08497752871705
C            1.55579009689220       -1.89416157040209        1.03334967437922
C            1.88371430743944       -1.08292461389706        2.10852781114440
C            2.92235913782327       -1.48523015819675        2.92649145967507
C            3.61458939176131       -2.67041107245066        2.69180255002273
C            3.26787311872352       -3.49957262520804        1.64371119525999
C            2.22676178116930       -3.11582146385276        0.80928639337732
C            1.59726541786382       -3.72970847367362       -0.32880349415025
C            1.81838290054545       -4.91378717590842       -1.01874221961019
C            1.01791534510225       -5.20357353033004       -2.10638168969673
C            0.01587341614706       -4.32679768310001       -2.51385020004167
C           -0.22120520498090       -3.14059581835982       -1.84416906653775
C            0.56832977437995       -2.85544658613479       -0.74119781384977
C           -2.25303578907114       -1.94623653525567        0.57643842118379
C           -3.60452215360654       -2.20766515333592        0.53164183628865
H           -4.55008520009843        0.18440336575504       -1.67530119772059
H           -2.12495169454034        0.64473183039643       -1.61031771970320
H            1.61541284694159        2.54716781715439        1.19444652175938
H            4.04841044913397        2.99830619908523        1.09625873973718
H            4.54010239872768       -0.19705342991631       -1.68669881617963
H            2.11342953591272       -0.64872134154503       -1.61731035201106
H           -1.35348515102591        0.18686735223439        2.30923361522502
H           -3.20443627759876        0.89797581581210        3.76180818537245
H           -4.41985559698855        2.98146151085771        3.33689083495320
H           -3.77734661905835        4.45456656958679        1.45734259573156
H           -2.58607411047486        5.60057072282837       -0.73097702956295
H           -1.15263278601408        6.12035129481669       -2.67769865239485
H            0.59978219260547        4.56590650414262       -3.39078434768576
H            0.99641121851460        2.45502734940487       -2.18529948616073
H            1.34472176042141       -0.17030739286162        2.31276041635437
H            3.20009356113867       -0.86720193993899        3.76687743928409
H            4.42508850159784       -2.94643807455047        3.34881634572823
H            3.78863766969943       -4.42943809087252        1.47508050040244
H            2.60191927405278       -5.58832567619377       -0.70983882016245
H            1.17148225244857       -6.12001213482089       -2.65551540844514
H           -0.58799998517916       -4.57579032898759       -3.37330179696970
H           -0.99492170052692       -2.46343254417182       -2.17341948004602
H           -1.61167830657361       -2.54451526040406        1.20631452256893
H           -4.04313662039407       -3.00437328625163        1.11244602380370
