70
 energy: -121.444103643261 gnorm: 0.000068736754 xtb: 6.7.1 (edcfbbe)
O           -4.31260081267393       -4.97814593211811       -1.08090610375829
N           -3.33345249796097       -5.07555490775447       -0.37139535846136
O           -3.06247639141237       -6.04724523710475        0.30248350537623
C           -2.42853227388847       -3.95760681518464       -0.32505041107946
C           -2.69530310631030       -2.82808775727163       -1.09165611888417
C           -1.83679444449238       -1.75298073801186       -1.03417264966845
C           -0.70850041977346       -1.79009386032734       -0.20853591205543
C            0.20851850422835       -0.64844705117977       -0.11748899345418
C           -0.20841048234012        0.64856197430899       -0.11752246576350
C            0.70853380986666        1.79025297748866       -0.20860099997413
C            0.44177314947573        2.94666905949480        0.53120391283737
C            1.29728457713500        4.02481680953648        0.48027699530527
C            2.42840954597927        3.95788570373361       -0.32520001427758
N            3.33323589220480        5.07589921878358       -0.37156138432482
O            4.31247482283006        4.97850254903203       -1.08098335112322
O            3.06205278474777        6.04769394340012        0.30205774037433
C            2.69537959220708        2.82827513764410       -1.09159546002785
C            1.83694646709604        1.75310987025203       -1.03407387101383
N           -1.55910728789251        0.96143197521619        0.04899063124435
C           -2.41630336501886        0.42849003295802        0.99896163194705
C           -2.13774791106315       -0.40118781778832        2.07398314698502
C           -3.18761088160023       -0.76795236616924        2.89433832782314
C           -4.48358511394474       -0.31477752803315        2.66205134145616
C           -4.75947583545666        0.54054586090598        1.61393145870377
C           -3.71977659202764        0.92308739384954        0.77719919255036
C           -3.64089504875285        1.79869818242708       -0.36101179346170
C           -4.57841102316045        2.55690358216665       -1.04885451955606
C           -4.15896191747058        3.29754863890042       -2.13660887819171
C           -2.82833297400146        3.28033775688011       -2.54643147082362
C           -1.87740854136911        2.53059642562963       -1.87907065913847
C           -2.29142309423530        1.80085752849138       -0.77574841791525
N            1.55918153057363       -0.96139540777842        0.04908746711825
C            2.41645671978231       -0.42836201289613        0.99894473697217
C            2.13802949438423        0.40155670031847        2.07381433185515
C            3.18795626132990        0.76835693274061        2.89407313528183
C            4.48386740343208        0.31496216330625        2.66186323505824
C            4.75962398981892       -0.54061945254477        1.61391964396923
C            3.71986255596102       -0.92317924339399        0.77727417739504
C            3.64087114452778       -1.79898398932309       -0.36077871354602
C            4.57829755799262       -2.55743354996582       -1.04847267790475
C            4.15875367415478       -3.29827249934477       -2.13605813442599
C            2.82812072867831       -3.28100055809387       -2.54586381233353
C            1.87728991842148       -2.53100250451644       -1.87865850504020
C            2.29139271359747       -1.80108095737530       -0.77548901875263
C           -0.44193393792194       -2.94641996907064        0.53147467553654
C           -1.29752972320562       -4.02450164337662        0.48060446717665
H           -3.57159046141757       -2.81297874441840       -1.72113763657542
H           -2.02991680890851       -0.88556549924350       -1.64629571357471
H           -0.43419807882596        2.98649025136364        1.16136085192718
H            1.11172669327040        4.91825219644585        1.05628924960625
H            3.57179086483909        2.81311815550218       -1.72089999222378
H            2.03023732122798        0.88560872305813       -1.64601846184706
H           -1.13526406475488       -0.74626840385245        2.27650633065328
H           -2.99651498891622       -1.41793667144968        3.73478581364760
H           -5.27816621384456       -0.62974352058399        3.32099553857145
H           -5.75922173725945        0.91060618919555        1.44708121179602
H           -5.61175049174520        2.56186389197594       -0.73816350796488
H           -4.87112897965547        3.89604693689638       -2.68396424062189
H           -2.53162367713816        3.86225672483205       -3.40587879369565
H           -0.84996228449108        2.51710150650698       -2.21034779203016
H            1.13558962361982        0.74677107538729        2.27632269103581
H            2.99695398067504        1.41851895898038        3.73440408355562
H            5.27850896837264        0.62999557365747        3.32070191122673
H            5.75932724876871       -0.91080364190361        1.44709018818989
H            5.61162605111687       -2.56249547751447       -0.73774717533071
H            4.87083614198023       -3.89701092162613       -2.68326052557475
H            2.53133474745158       -3.86305483871386       -3.40519287590875
H            0.84985583323736       -2.51742705975363       -2.20996750469946
H            0.43394588714774       -2.98621572418934        1.16176188633746
H           -1.11213973721310       -4.91783829937025        1.05682840351031
