70
 energy: -121.397127411863 gnorm: 0.000075282916 xtb: 6.7.1 (edcfbbe)
O           -6.39086053615050       -0.45571608095383       -1.68058060533882
N           -5.81159496030269       -1.30719171982852       -1.02102300526064
O           -6.36453310009404       -2.26698436601296       -0.50282090747409
C           -4.41211271836100       -1.17001328490681       -0.84133274215176
C           -3.73271098130413       -0.10476485210552       -1.44091719951557
C           -2.38557049428047        0.04108938649954       -1.24820872115461
C           -1.66319809566966       -0.86966142860343       -0.44153282688435
C           -0.29015927148945       -0.65862516031631       -0.12602268026753
C            0.29266131414122        0.66205536703735       -0.12948458539906
C            1.66544203650674        0.87169530821777       -0.44700389415545
C            2.36886300534866        1.96903368910271        0.10835103755692
C            3.71512727073484        2.10972449566108       -0.08205060992895
C            4.41393334705611        1.17080640705401       -0.85058433805277
N            5.81323423606322        1.30755312403717       -1.03223354042241
O            6.39219714141420        0.45288696763830       -1.68787955844633
O            6.36625621721441        2.27022120809124       -0.51953001262595
C            3.73439696016775        0.10221215616533       -1.44400862829342
C            2.38745342901196       -0.04306417916723       -1.24945093031407
N           -0.51384976273474        1.72923810848408        0.19630720845248
C           -1.50137284312326        1.73024478276483        1.17422220878271
C           -1.78656791398332        0.77875501792603        2.14225979520639
C           -2.82658261710329        1.03927309948934        3.01669639295729
C           -3.55371744425499        2.22275065823691        2.94737520570522
C           -3.24644554437771        3.19294380002750        2.00913414359320
C           -2.21256072012284        2.94833719794615        1.12079852802623
C           -1.62860575148626        3.72044679623480        0.05245533083612
C           -1.92351376956841        4.96181692681266       -0.48748779209120
C           -1.17885433267530        5.40661815273118       -1.56593948389559
C           -0.16953491537982        4.61992864373158       -2.11124201446605
C            0.14150364803642        3.37780569210620       -1.58632842933103
C           -0.58325516423789        2.94089632382110       -0.48782010833419
N            0.51641600240354       -1.72425863990702        0.20455079783534
C            1.50452114812092       -1.72067327913540        1.18187665305373
C            1.79075115344522       -0.76434173216282        2.14482555728034
C            2.83110777357586       -1.02088246990287        3.02003378196298
C            3.55758776395213       -2.20508217730525        2.95644200824819
C            3.24931809124688       -3.17993691171505        2.02337505574193
C            2.21508246125270       -2.93938102060253        1.13434365138053
C            1.63014576085028       -3.71671921654637        0.07033809008007
C            1.92411163523470       -4.96102674082687       -0.46332371835560
C            1.17860025560664       -5.41103672020307       -1.53902487813501
C            0.16937357459108       -4.62666404476745       -2.08782999973750
C           -0.14073230456617       -3.38168064267688       -1.56918444310683
C            0.58486750094284       -2.93945837474038       -0.47336056144864
C           -2.36648839100123       -1.96391186907868        0.12003637090422
C           -3.71294686446235       -2.10516593451767       -0.06852362151073
H           -4.28935996372003        0.58407422216029       -2.05729094048336
H           -1.86256288084115        0.84136431515144       -1.74894608023480
H            1.83778330712132        2.67928285680473        0.72421663955975
H            4.26252374716929        2.92879500056851        0.35820559746079
H            4.29076193834122       -0.58967278556506       -2.05722606582649
H            1.86430472324960       -0.84612049105479       -1.74556486540651
H           -1.22191782321343       -0.13638389418600        2.22550869628160
H           -3.07372246139242        0.30845530661075        3.77117048214257
H           -4.36093201932887        2.38881691926628        3.64383514999780
H           -3.79645502581457        4.12001524889076        1.96902261514453
H           -2.72280530228016        5.56047919343979       -0.07958784850533
H           -1.38889899893808        6.37234993787173       -1.99914537676850
H            0.38421786044395        4.98271137542544       -2.96334342260834
H            0.92155566356022        2.77592508930167       -2.02518127918105
H            1.22663572598524        0.15151714064329        2.22365076124889
H            3.07903520902301       -0.28630332076655        3.77058663817277
H            4.36508070692344       -2.36797907320905        3.65332823631929
H            3.79882084817574       -4.10749303298209        1.98775407997516
H            2.72332662330133       -5.55797978054350       -0.05278033084924
H            1.38789665868750       -6.37911349786779       -1.96732876356445
H           -0.38504768145622       -4.99357759164646       -2.93772539358413
H           -0.92072905179378       -2.78168172490803       -2.01070918044284
H           -1.83512677496223       -2.67112000590876        0.73915167498592
H           -4.26024836746965       -2.92175252870488        0.37643126462179
