70
 energy: -121.397140092163 gnorm: 0.000063683525 xtb: 6.7.1 (edcfbbe)
O           -6.18515445198973       -2.71346526097408        0.48033444031495
N           -5.69849666326120       -1.71703507889263        0.99577261665625
O           -6.33237654966179       -0.90938048741349        1.66010493811552
C           -4.31346854186867       -1.48055180673130        0.80696547572412
C           -3.55432541256339       -2.36414942618495        0.03010999447143
C           -2.22233585918640       -2.12802450971039       -0.16630688112423
C           -1.59512874168779       -0.98645912407415        0.39113129142194
C           -0.24214716592283       -0.67848210053785        0.06957344890201
C            0.24429086013824        0.68116147542344        0.07235423906193
C            1.59738565688457        0.98777156121432        0.39466033511342
C            2.22427317268050        2.13209565821750       -0.15748998770353
C            3.55641547759386        2.36715915997005        0.03913641425664
C            4.31616504048551        1.47948531175575        0.81074520038677
N            5.70144427287845        1.71457598968669        0.99917911887844
O            6.33618661923853        0.90240884702996        1.65719113784054
O            6.18752779329512        2.71434875862219        0.48967513484632
C            3.71105647868054        0.36513314579017        1.40056350845873
C            2.37862529169489        0.12545012568088        1.19980210767424
N           -0.63607969377094        1.68616974390461       -0.25930364524482
C           -0.79432788352885        2.89320271302350        0.41824390494871
C           -0.10585086800727        3.38695963919036        1.51600850164852
C           -0.50677058814314        4.60630207465592        2.03335453002115
C           -1.56853143234953        5.31553451783320        1.48143349859381
C           -2.27652669720214        4.81248388285156        0.40391780173659
C           -1.89177632114989        3.59260052204379       -0.12838981183414
C           -2.41641310952492        2.77468595968840       -1.19337500055976
C           -3.46361504576961        2.93936506516679       -2.08453991050143
C           -3.69878053873819        1.94437132830351       -3.01761103089185
C           -2.88834274490638        0.81587724921605       -3.07909551754606
C           -1.83378573651386        0.63578607261915       -2.20181302176640
C           -1.61930015622067        1.61069290884886       -1.23881477832132
N            0.63789788689604       -1.68222886674162       -0.26671395371870
C            0.79615183468664       -2.89214193647814        0.40566756952971
C            0.10797749048158       -3.39039915944959        1.50158379990656
C            0.50882295044154       -4.61201878347406        2.01358424379839
C            1.57026412630101       -5.31909240306423        1.45828933994708
C            2.27791664174734       -4.81165869732898        0.38260509846794
C            1.89314582875445       -3.58950642344219       -0.14446250096820
C            2.41721302012684       -2.76742408036833       -1.20651841794097
C            3.46336382048004       -2.92898398368701       -2.09948893730731
C            3.69775434140180       -1.93049184815777       -3.02901354931595
C            2.88773366856203       -0.80141349341570       -3.08511118096767
C            1.83431387430124       -0.62430518870292       -2.20585990351364
C            1.62044420501810       -1.60299729763907       -1.24657620934351
C           -2.37583257220878       -0.12805659198464        1.20092165491132
C           -3.70804314550489       -0.36900615715944        1.40172199900366
H           -4.04496631163243       -3.21774740899225       -0.41146762241698
H           -1.64576805139724       -2.79625553990642       -0.78825062474014
H            1.64729674536018        2.80354326599698       -0.77557194464939
H            4.04675134883926        3.22302890564946       -0.39835524724939
H            4.31207246512212       -0.28631267781503        2.01592987004079
H            1.91118924255606       -0.71303306692853        1.69292316808533
H            0.71425145470689        2.84511976425458        1.96004624767832
H            0.01718745792437        5.01248053975127        2.88471135977163
H           -1.84853057150836        6.26601502183246        1.90875180263471
H           -3.11575144566087        5.34987648940665       -0.00907558373170
H           -4.07888207781886        3.82472891626554       -2.05049747245853
H           -4.51462464155314        2.04802477414366       -3.71609504733703
H           -3.08094954766848        0.06484298103326       -3.82959885293036
H           -1.20483084976157       -0.23688552630800       -2.27946582652393
H           -0.71182919200297       -2.85025708019454        1.94822540298994
H           -0.01493517163417       -5.02172810514161        2.86337294652075
H            1.85026249215352       -6.27141043226949        1.88150207118637
H            3.11687738640465       -5.34746346255240       -0.03297608167357
H            4.07838174033988       -3.81466868998132       -2.06956597329374
H            4.51264729550196       -2.03181215375837       -3.72895054555504
H            3.07970721257646       -0.04757646336657       -3.83296619544107
H            1.20565907220936        0.24895526033113       -2.27925388683442
H           -1.90812039895246        0.70819813007319        1.69756987343427
H           -4.30863494997215        0.27928802380515        2.02083046107235
