44
 energy: -64.772206575009 gnorm: 0.000041456515 xtb: 6.7.1 (edcfbbe)
C           -5.67992668032213        0.00079255334871       -0.00094328930555
C           -4.98270819457973        0.65589189910518       -1.00347983873703
C           -3.60140911282617        0.66103235600683       -1.00259767747950
C           -2.88632085367205       -0.00043785636853       -0.00126170920751
C           -1.42306131965374       -0.00042174850658       -0.00112825316216
C           -0.71260887039984       -1.24136342624677       -0.02796854834072
C           -1.37623347669317       -2.46541563332327       -0.12751885753544
C           -0.68299983196318       -3.67538148348761       -0.07890850771132
C            0.68434380912552       -3.67517309446355        0.07534537135069
C            1.37714456830188       -2.46498392418041        0.12447009306399
C            0.71307558401938       -1.24112571203840        0.02544879953127
C            1.42303957378327        0.00008415192740       -0.00083414244903
C            2.88631466771373        0.00078192176731        0.00036437018108
C            3.60014966644311        0.66203062841645        1.00273759553062
C            4.98144514663749        0.65752937334186        1.00492323604395
C            5.67989976747924        0.00337441090864        0.00262883699291
C            4.98425818176524       -0.65215607647425       -1.00071511152720
C            3.60293907487469       -0.65925412621969       -1.00079258528865
C            0.71258861384625        1.24101639516577       -0.02778886801558
C            1.37623601390539        2.46505290719162       -0.12738814159841
C            0.68306021254523        3.67503101990319       -0.07851659306275
C           -0.68423540305736        3.67482213306670        0.07617824016114
C           -1.37704935701273        2.46464127420760        0.12524115522229
C           -0.71306538503181        1.24078545741629        0.02566291958008
C           -3.60172726948242       -0.66144906872542        1.00014334863611
C           -4.98304237746068       -0.65504270874971        1.00134247670208
H           -6.75981462363885        0.00135912844491       -0.00075103057538
H           -5.51973680966164        1.16391843066025       -1.79153281825103
H           -3.06010955121728        1.15737626122415       -1.79539326949271
H           -2.44857442637488       -2.48037145809676       -0.24866348872165
H           -1.22903991103336       -4.60420134937885       -0.15087166972017
H            1.23070385371244       -4.60383041519839        0.14697351583889
H            2.44949106073667       -2.47959800430265        0.24559976119574
H            3.05785119136356        1.15770700705706        1.79526639835970
H            5.51749775035959        1.16537198654742        1.79375743716601
H            6.75978609417815        0.00449178947513        0.00341649655860
H            5.52252747921820       -1.15890336955899       -1.78873281767643
H            3.06289734727155       -1.15581844970244       -1.79429267555914
H            2.44854787511331        2.47999106750024       -0.24879683426914
H            1.22910016082126        4.60383623695998       -0.15058011134419
H           -1.23055659698881        4.60346850251291        0.14816910304431
H           -2.44934504413335        2.47930727503218        0.24680866063893
H           -3.06071568449382       -1.15824385411712        1.79283796894383
H           -5.52033097078342       -1.16260188755186        1.78950552174096
