44
 energy: -64.835788533238 gnorm: 0.000019123878 xtb: 6.7.1 (edcfbbe)
C           -5.67247673235422       -0.00011232512996        0.00009188656215
C           -4.97827132175335       -0.00014896393429       -1.19812690731419
C           -3.59485315443022       -0.00004622888828       -1.19944688621830
C           -2.89166144942763        0.00009524532956        0.00000003538346
C           -1.41005269889434        0.00010668821019       -0.00003892273484
C           -0.71473532084030       -1.21513472300013       -0.00004523318221
C           -1.39282989329748       -2.46241295219727       -0.00002599562690
C           -0.70509034095103       -3.63641230850656       -0.00002440376391
C            0.70495960360853       -3.63643788608422       -0.00004750204420
C            1.39274170485880       -2.46246330002307       -0.00006376021096
C            0.71469208332545       -1.21516063365961       -0.00005637408818
C            1.41005265589565        0.00005574625617       -0.00005538978867
C            2.89166149171144        0.00000043057289       -0.00002302134242
C            3.59477535584669       -0.00016824349145        1.19947021573423
C            4.97819297109976       -0.00028837838108        1.19824225282136
C            5.67247657186854       -0.00024241713471        0.00006858337393
C            4.97827094612907       -0.00006156297923       -1.19815010473893
C            3.59485267919099        0.00006082251970       -1.19947012605667
C            0.71473641519959        1.21529516906651       -0.00005456815036
C            1.39283150237641        2.46257325444653       -0.00004575469984
C            0.70509091137136        3.63657227928031       -0.00003493540480
C           -0.70496013283487        3.63659783278246       -0.00003609449222
C           -1.39274321010043        2.46262375572898       -0.00004378150187
C           -0.71469333384620        1.21532108286909       -0.00004791467452
C           -3.59477500251993        0.00015193660535        1.19949327101562
C           -4.97819278870930        0.00004672803892        1.19826525922227
H           -6.75259954784132       -0.00021168949608        0.00012748799711
H           -5.51628699223738       -0.00026945323029       -2.13504025171972
H           -3.04936898073339       -0.00008659213629       -2.13239374654085
H           -2.47321915465090       -2.45908153330014       -0.00001063905399
H           -1.23317269362201       -4.57880980892319       -0.00000609105523
H            1.23300731003028       -4.57885476182007       -0.00005173802627
H            2.47313113983061       -2.45917028443971       -0.00008280505737
H            3.04922806745680       -0.00021120856119        2.13238010920086
H            5.51614653411483       -0.00042529276424        2.13519121132069
H            6.75259941723364       -0.00035136154196        0.00010401744918
H            5.51628689422562       -0.00002690088710       -2.13506330939837
H            3.04936842438613        0.00019216513521       -2.13241693685857
H            2.47322127688000        2.45923777538883       -0.00004654521947
H            1.23317150622088        4.57897102473081       -0.00002575105942
H           -1.23300608599731        4.57901594191068       -0.00002997111000
H           -2.47313323971123        2.45932694821669       -0.00004569711698
H           -3.04922822472704        0.00026455371070        2.13240348175113
H           -5.51614616338817        0.00007742971750        2.13521434642524
