44
 energy: -64.772204807263 gnorm: 0.000047610168 xtb: 6.7.1 (edcfbbe)
C           -5.67948886998701        0.00126507391536       -0.00072905459057
C           -4.98233905649852        0.63431640242293       -1.01732144272085
C           -3.60094353965972        0.64026936613680       -1.01593282298473
C           -2.88650178086596        0.00055407210477       -0.00051937966252
C           -1.42264359114030        0.00019258541087       -0.00040486191942
C           -0.71331148118562       -1.24126888755128       -0.01999424126020
C           -1.37851244024344       -2.46533298209650       -0.10753992708655
C           -0.68533524837220       -3.67550659708381       -0.05948528237614
C            0.68340291996352       -3.67541423378763        0.08113173302976
C            1.37717169598319       -2.46531268012424        0.12185955905189
C            0.71257231057615       -1.24147520935376        0.02689816461501
C            1.42251057455289       -0.00050049908226       -0.00020922829930
C            2.88636765677849       -0.00085328078257       -0.00010274294159
C            3.60112996745548        0.64467865636536        1.01139777478977
C            4.98252305946678        0.63805978250115        1.01281564185611
C            5.67935607535047       -0.00150673952631        0.00009142645793
C            4.98236455408382       -0.64074900605886       -1.01272871619498
C            3.60096834480956       -0.64672158794660       -1.01150219723405
C            0.71318023712124        1.24082224456974       -0.02741396785200
C            1.37838675378485        2.46433329637314       -0.12228710923098
C            0.68520434616657        3.67476773276771       -0.08164951506295
C           -0.68355152215118        3.67552491251634        0.05878478771912
C           -1.37732101775810        2.46569688971822        0.10674609661205
C           -0.71270907637836        1.24131083406412        0.01928682480786
C           -3.60142050995363       -0.63879911515326        1.01478693407677
C           -4.98281484767746       -0.63214242901186        1.01596785620296
H           -6.75938325210178        0.00154117763856       -0.00080860242118
H           -5.51935303098209        1.12445499963911       -1.81661661798978
H           -3.05926596383074        1.12035351365478       -1.81842911606939
H           -2.45195322105576       -2.48009757876413       -0.21867922315420
H           -1.23248376189471       -4.60433705339836       -0.12224951659345
H            1.23009618037622       -4.60411711037214        0.14951985323230
H            2.45060590879597       -2.47993025672042        0.23309192557685
H            3.05969432461705        1.12989818544595        1.81096236231340
H            5.51978122911210        1.13279108329643        1.80911080894534
H            6.75925055982697       -0.00175860759908        0.00016575773289
H            5.51950205483581       -1.13573114777239       -1.80894993895759
H            3.05941628954379       -1.13168914940427       -1.81114167691575
H            2.45184425466394        2.47842696440646       -0.23338284695612
H            1.23235955719130        4.60320601313106       -0.14996335178081
H           -1.23025420999358        4.60462731283442        0.12147655036312
H           -2.45077308610637        2.48098240605740        0.21774646381835
H           -3.06010906070191       -1.11915842749404        1.81736453482628
H           -5.52019668627789       -1.12200621747730        1.81518309522034
