44
 energy: -64.836157855479 gnorm: 0.000027265050 xtb: 6.7.1 (edcfbbe)
C           -5.67419359863706        0.00202473416594       -0.00036545645250
C           -4.97931560982316        0.39717208559659       -1.13123011420782
C           -3.59615124080333        0.39896183246200       -1.13164126282787
C           -2.89104619377646        0.00030426621612       -0.00039269930149
C           -1.41219414126803       -0.00018735746680       -0.00038745521773
C           -0.71522551401250       -1.21640929117755       -0.00305904042067
C           -1.39124454836815       -2.46466622542894       -0.03448381882604
C           -0.70494022624391       -3.63938603385861       -0.01629108116855
C            0.70332599353871       -3.63949713786077        0.03880951048788
C            1.39005193940776       -2.46493983899327        0.04950074419227
C            0.71444944232659       -1.21668195940995        0.01024346140864
C            1.41194713193903       -0.00084773874377       -0.00029515557711
C            2.89084269279387       -0.00106523728451       -0.00001551502598
C            3.59589268598042        0.40148916006648        1.12986549502554
C            4.97905766050456        0.39899876504958        1.12971035038353
C            5.67394097760628       -0.00064696787205        0.00043089818564
C            4.97953520196947       -0.40059101456588       -1.12902868531502
C            3.59636182145724       -0.40349739471472       -1.12963409202374
C            0.71501046229049        1.21532200264479       -0.01102809570545
C            1.39119956176869        2.46325329368037       -0.05051960658049
C            0.70503021407378        3.63814193374438       -0.04015929431846
C           -0.70322741415122        3.63870231419649        0.01496389328543
C           -1.39007951093924        2.46430517962141        0.03343686354533
C           -0.71465571014044        1.21572329861972        0.00220464086233
C           -3.59659605898223       -0.39759668639104        1.13083042569601
C           -4.97976626941840       -0.39408108478387        1.13043659488400
H           -6.75428675293283        0.00286312109134       -0.00027527657678
H           -5.51691861851943        0.70583351794341       -2.01611331956190
H           -3.05128737819965        0.70500583433923       -2.01346251905698
H           -2.47047051699586       -2.46480337920952       -0.07592415493297
H           -1.23361635733832       -4.58112215276573       -0.04073428853173
H            1.23163293144855       -4.58126587573487        0.06916418676278
H            2.46929172571749       -2.46511567255497        0.09069879001612
H            3.05099658146737        0.71115368307645        2.01039892601374
H            5.51665789107392        0.71054653545406        2.01358098644699
H            6.75403451545933       -0.00044696358269        0.00059294344005
H            5.51750410284584       -0.71200240178233       -2.01272274407444
H            3.05186156031899       -0.71325907414699       -2.01037815330444
H            2.47043916712657        2.46294192682427       -0.09166682488425
H            1.23379151927874        4.57964804179715       -0.07075402338062
H           -1.23147239637995        4.58068553996145        0.03914899543493
H           -2.46930283611614        2.46498604944359        0.07486596790016
H           -3.05211799799784       -0.70432635385916        2.01265007567624
H           -5.51772320827988       -0.70196255715233        2.01537567717160
