  44
        -64.76657630
 C         -5.6794383612        0.0080657606       -0.0165227194
 C         -4.9742050053        0.6931670467       -0.9936382140
 C         -3.5935546879        0.6952837952       -0.9843887330
 C         -2.8836094878       -0.0010574166       -0.0010664446
 C         -1.4234775452       -0.0034736153        0.0054952020
 C         -0.7131456244       -1.2421981937       -0.0236277209
 C         -1.3746670111       -2.4682073834       -0.1324083182
 C         -0.6819423954       -3.6772774111       -0.0757743543
 C          0.6844519365       -3.6764683151        0.0948905072
 C          1.3761957432       -2.4666012236        0.1459898944
 C          0.7134445855       -1.2416146324        0.0337597929
 C          1.4233793598       -0.0026826305        0.0008428988
 C          2.8835753397       -0.0010210913       -0.0023436797
 C          3.6017922942        0.6934545347        0.9761033487
 C          4.9825065561        0.6913338482        0.9734885305
 C          5.6793490339        0.0081576365       -0.0108902543
 C          4.9808996304       -0.6803676744       -0.9903843635
 C          3.6001664196       -0.6917300084       -0.9845786981
 C          0.7128644454        1.2359138411       -0.0270216322
 C          1.3738060441        2.4617658812       -0.1407440315
 C          0.6815276106        3.6708857561       -0.0802528576
 C         -0.6836004433        3.6701178052        0.0998311982
 C         -1.3751171637        2.4602796398        0.1549357410
 C         -0.7132439804        1.2353576486        0.0373061474
 C         -3.6086086021       -0.6922575670        0.9746117077
 C         -4.9893748819       -0.6810173386        0.9684606377
 H         -6.7592313016        0.0116192696       -0.0224288543
 H         -5.5052649985        1.2257203674       -1.7692877162
 H         -3.0467424168        1.2120772830       -1.7600240099
 H         -2.4451690825       -2.4839980342       -0.2681579282
 H         -1.2264265889       -4.6065217815       -0.1535191131
 H          1.2296443948       -4.6049929697        0.1760716967
 H          2.4468801798       -2.4807447692        0.2809742426
 H          3.0617323703        1.2093910375        1.7570578693
 H          5.5202265233        1.2234314187        1.7449627945
 H          6.7591587143        0.0121329863       -0.0145228800
 H          5.5174599038       -1.2089728241       -1.7651408309
 H          3.0588612050       -1.2110977039       -1.7623815100
 H          2.4433488108        2.4772996774       -0.2836371291
 H          1.2254798607        4.6000844580       -0.1623999946
 H         -1.2281496411        4.5986109795        0.1854025095
 H         -2.4448092901        2.4744832183        0.2974062566
 H         -3.0741426042       -1.2117029289        1.7570104727
 H         -5.5325439519       -1.2107078152        1.7379050494
