92
 energy: -158.283887631691 gnorm: 0.000046450198 xtb: 6.7.1 (edcfbbe)
C           -6.15938843192713       -3.39119021472749       -3.02344210141563
C           -5.01235915746924       -2.61772792755021       -3.05840927845208
C           -4.09292435308765       -2.67711218916297       -2.02536351738487
C           -4.30882094814476       -3.50614077809902       -0.92718897692626
C           -5.46447209029155       -4.30526452921620       -0.91428234966845
C           -6.37932558269011       -4.24135708073324       -1.95196231876644
O           -5.73510520316895       -5.18476288049504        0.10045255746022
C           -4.85010624230308       -5.24679394285229        1.14366666629674
C           -5.14692376070641       -6.12215135239313        2.17457704232783
C           -4.30631954749467       -6.21476146514699        3.27216235869516
C           -3.17749260380963       -5.41670689225230        3.34035457112229
C           -2.87296330022884       -4.54154091830333        2.31210347932043
C           -3.69062869986789       -4.45529244909914        1.18807273445704
N           -3.41269992374699       -3.59058883006342        0.13468206156827
C           -2.20083743261050       -2.85627002611854        0.11734494370586
C           -0.97757500125200       -3.53942054852097        0.04013660713325
C            0.18767257927098       -2.82272957184473        0.01018386112655
C            0.17972327159478       -1.41786897554957        0.03522602693052
C           -1.05143443694191       -0.72094354708092        0.10769596928227
C           -2.22945295612317       -1.47833924364948        0.16236460457974
C           -1.05074597423689        0.72196065419886        0.10331946241177
C           -2.22809328085431        1.48091057142146        0.15161626635727
C           -2.19767690361807        2.85852368692901        0.09979905732461
N           -3.40841876408879        3.59488717241377        0.11505932537008
C           -3.68496815626011        4.46103936057253        1.16760883201128
C           -2.86641960859628        4.54796725261229        2.29093856677418
C           -3.16922676963358        5.42500389881586        3.31808153669436
C           -4.29712482548664        6.22433204745780        3.24939208568066
C           -5.13867496329055        6.13097434740048        2.15258126358047
C           -4.84369715180314        5.25358963428614        1.12286256487635
O           -5.72969208208472        5.19051875511680        0.08051821094263
C           -5.46033844539237        4.30959177176235       -0.93332858526652
C           -6.37607474420464        4.24458792572219       -1.97014016475642
C           -6.15697475106789        3.39327551593486       -3.04090818661756
C           -5.00997909108583        2.61974121655954       -3.07606584120355
C           -4.08985271125439        2.67982973891546       -2.04365511201436
C           -4.30497495043213        3.51000532782809       -0.94621424948406
C           -0.97362525200829        3.53989688616459        0.01997134882135
C            0.19088460167028        2.82177928353715       -0.00437320701496
C            0.18125010980547        1.41715849755260        0.02930540556847
C            1.42316160181353        0.70841542278584       -0.02003640368558
N            2.57314864050529        1.38079617775689       -0.06865492299742
C            3.73294770020763        0.71718834559834       -0.10587747955979
C            4.95528179596495        1.38852931730167       -0.15690425569595
C            6.16218176810500        0.70071859451177       -0.19934152785341
C            7.40680451361711        1.45685576547903       -0.32574040480919
C            8.39510780443260        1.13751191966122       -1.26367852894367
N            9.51928059597268        1.82008451631091       -1.37651968555824
C            9.67679538528758        2.85085620997587       -0.56295462890704
N            8.80477953046648        3.27549012546200        0.33442967705208
C            7.68296727262564        2.58716991743142        0.44968476904731
C            6.16179507937583       -0.70857047778052       -0.17829725817065
C            7.41015350809142       -1.46711209562242       -0.12062148316191
C            8.44299711636771       -1.15464382087605        0.77031715007057
N            9.56995985762357       -1.83976475829454        0.82508267115015
C            9.68582536757887       -2.86604255182231       -0.00107402530414
N            8.77038091400323       -3.28449216539862       -0.85708269985229
C            7.64546500969980       -2.59387036222811       -0.91419757437543
C            4.95405828574640       -1.39510799315825       -0.14537682358055
C            3.73179508268102       -0.72237616063006       -0.10985105652509
N            2.57131332873853       -1.38454315788853       -0.07439110499847
C            1.42221191649843       -0.71076887997084       -0.02008106236735
H           -6.87726652448270       -3.34494253281098       -3.82671306497992
H           -4.82245315734750       -1.96412689912046       -3.89537792551262
H           -3.19444589480819       -2.08324166689448       -2.07364295194115
H           -7.25371175734387       -4.87050001112523       -1.90076509950761
H           -6.04241479749988       -6.71808473725680        2.09775008179493
H           -4.54155045061829       -6.90058750258214        4.07036073102601
H           -2.52611068319221       -5.46878480134455        4.19887955449357
H           -1.99645037795875       -3.91699733853856        2.37927307059189
H           -0.96901916080510       -4.61795588460880       -0.00086260604911
H            1.14595286881713       -3.31524222690239       -0.04919624154832
H           -3.18955047501358       -0.99338385061862        0.23651148755003
H           -3.18893544082683        0.99748583915716        0.22611263955145
H           -1.99055352980711        3.92256788438598        2.35839499677342
H           -2.51725448526415        5.47749764634316        4.17612250249179
H           -4.53092984939406        6.91170657158042        4.04667192303055
H           -6.03351703430779        6.72784413346889        2.07551553525594
H           -7.25044095551773        4.87376417276084       -1.91890477195783
H           -6.87551788349641        3.34623451431074       -3.84354866831861
H           -4.82073153332751        1.96555171145719       -3.91272619994155
H           -3.19147906438260        2.08573055432981       -2.09166169661858
H           -0.96392154652124        4.61816888021810       -0.02719564597278
H            1.14977129765358        3.31285295997087       -0.06581544181361
H            4.94308343914360        2.46738600750910       -0.19271223101760
H            8.26726902296628        0.31615515278661       -1.95883423853659
H           10.60263828732974        3.40407965957081       -0.64860271801755
H            6.98310252453712        2.93780823700577        1.19827612326306
H            8.34985844141993       -0.33679144561609        1.47509545021202
H           10.61364612374314       -3.42132571827419        0.03659100597681
H            6.90889595485372       -2.93974228598987       -1.62908824497207
H            4.94342371326366       -2.47393655889352       -0.10699010480596
