  92
       -158.25976928
 C         -6.3214314455       -2.9288385419       -2.8553800738
 C         -5.1293728163       -2.2364787327       -2.9173638305
 C         -4.1505313188       -2.4364569285       -1.9562258460
 C         -4.3517606731       -3.3232267424       -0.9051245615
 C         -5.5488428983       -4.0518625543       -0.8762718381
 C         -6.5228637493       -3.8472232303       -1.8365085397
 O         -5.8098056954       -5.0060535254        0.0735371954
 C         -4.8628491500       -5.2087424862        1.0451597448
 C         -5.1540817326       -6.1498768616        2.0155121390
 C         -4.2648051871       -6.3835630899        3.0534110753
 C         -3.0967129253       -5.6517713851        3.1246110990
 C         -2.7994120274       -4.7086568369        2.1528926371
 C         -3.6597980790       -4.4918035385        1.0835732031
 N         -3.3894029500       -3.5492139359        0.0858439649
 C         -2.1726122849       -2.8442965530        0.0801163404
 C         -0.9566507819       -3.5320785149        0.0083751438
 C          0.2190359827       -2.8241542419       -0.0081138815
 C          0.2205533080       -1.4253694525        0.0273456906
 C         -0.9977070762       -0.7197087459        0.0917629526
 C         -2.1800737360       -1.4593595845        0.1329528248
 C         -0.9945877783        0.7363168561        0.0848515981
 C         -2.1730544288        1.4813525968        0.1323091181
 C         -2.1612521313        2.8655740060        0.0608690767
 N         -3.3754782260        3.5742588007        0.0745165141
 C         -3.6334686248        4.5257361342        1.0674975951
 C         -2.7505282287        4.7676000236        2.1128367559
 C         -3.0368419938        5.7186562711        3.0801002890
 C         -4.2160528170        6.4341045761        3.0287712789
 C         -5.1267658375        6.1757672558        2.0157232937
 C         -4.8465433335        5.2265288544        1.0499398057
 O         -5.8148267613        4.9993738025        0.1051330998
 C         -5.5692893038        4.0294569372       -0.8328323163
 C         -6.5695174081        3.7907713688       -1.7577407443
 C         -6.3852756530        2.8554069472       -2.7643122294
 C         -5.1837660012        2.1822451908       -2.8518343517
 C         -4.1788801671        2.4164740957       -1.9260524496
 C         -4.3628067879        3.3180227309       -0.8841698352
 C         -0.9436856300        3.5472535733       -0.0373362251
 C          0.2291179837        2.8343890403       -0.0549301685
 C          0.2258501711        1.4363126365        0.0018514592
 C          1.4772955551        0.7182959374       -0.0309054870
 N          2.6061488350        1.4011565860       -0.0753271981
 C          3.7552861962        0.7110945833       -0.0988009973
 C          4.9842210978        1.3955600332       -0.1551932316
 C          6.1709960918        0.7060448289       -0.1756206522
 C          7.4323550751        1.4413086874       -0.3049439037
 C          8.4016002948        1.1147005052       -1.2572862517
 N          9.5358683590        1.7788292236       -1.3698472875
 C          9.7216837314        2.7933502082       -0.5438874336
 N          8.8691457517        3.2168371941        0.3711950536
 C          7.7376608773        2.5471364591        0.4908397797
 C          6.1697782289       -0.7184280731       -0.1160786811
 C          7.4336804001       -1.4575139089       -0.0464769006
 C          8.4450352526       -1.1353964726        0.8627645301
 N          9.5818643294       -1.8017578144        0.9229278692
 C          9.7286966677       -2.8143373345        0.0866743305
 N          8.8354523861       -3.2336445183       -0.7906020248
 C          7.7010332540       -2.5614753012       -0.8581448698
 C          4.9810178162       -1.4037524815       -0.0781220902
 C          3.7532107723       -0.7148169959       -0.0723144469
 N          2.6016872046       -1.4001322197       -0.0310156282
 C          1.4749111007       -0.7126354122       -0.0125184908
 H         -7.0885428806       -2.7727196751       -3.5968832425
 H         -4.9450769796       -1.5363189063       -3.7172825395
 H         -3.2158987890       -1.9043486066       -2.0361657168
 H         -7.4311949786       -4.4243887699       -1.7707761624
 H         -6.0871273240       -6.6851808180        1.9427040204
 H         -4.4978323954       -7.1223933578        3.8034418466
 H         -2.4060174573       -5.8029744928        3.9396401230
 H         -1.8923343804       -4.1307321354        2.2339775569
 H         -0.9552990297       -4.6102332954       -0.0453931371
 H          1.1712355782       -3.3269737417       -0.0669722281
 H         -3.1363555697       -0.9671737968        0.2069617872
 H         -3.1298645966        0.9939738035        0.2278178150
 H         -1.8341560632        4.2027356724        2.1795606274
 H         -2.3282382168        5.8895130072        3.8756827006
 H         -4.4406614770        7.1792669278        3.7751264226
 H         -6.0686171805        6.6974564133        1.9591341960
 H         -7.4842355591        4.3554536148       -1.6747757364
 H         -7.1727623599        2.6717504761       -3.4776050095
 H         -5.0130147651        1.4697832916       -3.6438935438
 H         -3.2382802840        1.8983602005       -2.0258952946
 H         -0.9385630059        4.6243531316       -0.1087610178
 H          1.1826594068        3.3325297016       -0.1297636951
 H          4.9657561786        2.4734923091       -0.2090027847
 H          8.2501088533        0.3069996559       -1.9629064656
 H         10.6563747127        3.3304261126       -0.6307423115
 H          7.0539012529        2.8929743552        1.2562673560
 H          8.3267580839       -0.3286562813        1.5758344493
 H         10.6650282777       -3.3537738084        0.1308843383
 H          6.9826992539       -2.9048974838       -1.5923763389
 H          4.9616394478       -2.4816744793       -0.0240930232
