43
 energy: -69.856838635728 gnorm: 0.000059961576 xtb: 6.7.1 (edcfbbe)
N           -6.74371429529078       -3.88550899833753       -0.02142233313839
C           -5.80274792926893       -3.23046858561232       -0.01020699176136
C           -4.64418747961858       -2.42123250032112        0.00221820994352
C           -3.44569744614850       -2.90533768315842       -0.52598683095921
C           -2.32259474846589       -2.10716117125169       -0.51212760951845
C           -2.36921301434781       -0.81685344378491        0.01839898723948
C           -1.14736853511305        0.00074795807365        0.00828012115228
C           -1.18424736635879        1.39390100132573       -0.00878097164605
C            0.01325334311304        2.10360527573451        0.00047166660743
C            0.02111287785930        3.57369744145511        0.00204656536375
C           -0.86239983058912        4.28581477578569       -0.80514477936424
C           -0.85132535384347        5.66818450266373       -0.80564324759450
C            0.03415710763692        6.35747788408267        0.00608690619041
C            0.91328083470986        5.65752470981661        0.81558757095336
C            0.91145056363807        4.27508763572737        0.81107058203176
C            1.20243440669898        1.38004142602824        0.00851767810102
C            1.14930776878018       -0.01261063616215       -0.01125296546100
C            2.36133052237510       -0.84473442687726       -0.02208935089609
C            2.29816976399203       -2.13593864134805        0.50461284017441
C            3.41150156355276       -2.94766561523766        0.51837961422853
C            4.61681065696127       -2.47653830574041       -0.00600990929741
C            5.76577101096358       -3.29934099977730        0.00671212737871
N            6.69946038446977       -3.96471860280368        0.01788599156238
C            4.68626830600935       -1.19263169523283       -0.54848215155019
C            3.56623494031029       -0.38726263478552       -0.55455869480323
N           -0.00293347467023       -0.67303405413108       -0.00225805752394
C           -3.56751204526699       -0.34630250225307        0.55436770677923
C           -4.69717662603235       -1.13807725291853        0.54829681562499
H           -3.40970498165382       -3.90174996006598       -0.94120108294073
H           -1.38705797566129       -2.46438848205753       -0.91337812932186
H           -2.12438498808752        1.92198359987855       -0.02514696056169
H           -1.54377544770250        3.75210840835798       -1.45203535540830
H           -1.53576626496850        6.20975991153321       -1.44182529623505
H            0.03906954202047        7.43716667783363        0.00780064817322
H            1.60272902018728        6.19082653591497        1.45334687932202
H            1.58784374395993        3.73316377316666        1.45635631693629
H            2.14864856133426        1.89712668433612        0.02613118990826
H            1.35759292349210       -2.48298665903248        0.90300244231114
H            3.36262809653463       -3.94475316007338        0.93066142230923
H            5.61873048682983       -0.83932152240553       -0.96386164481560
H            3.62673161946646        0.59548057714452       -0.99740562347815
H           -3.61521334786757        0.63588052676964        1.00001996379055
H           -5.62449296705614       -0.77470011227731        0.96650144679869
