43
 energy: -69.764108547739 gnorm: 0.000080242156 xtb: 6.7.1 (edcfbbe)
N           -6.60124232934196       -4.12228707456108        0.11787515019846
C           -5.69291481519005       -3.41881556154930        0.09113784785452
C           -4.58224915025326       -2.55798672784878        0.05723550312622
C           -4.75900626697563       -1.18412151606361       -0.16842231862058
C           -3.67723077698185       -0.34113331193185       -0.19645754475528
C           -2.37196425001062       -0.83100187251872       -0.01136117898098
C           -1.19671180086629       -0.00245138048891       -0.05464548519731
C           -1.22177229636030        1.38935351853327       -0.07135717418784
C           -0.03165832818065        2.12428745100283       -0.00749962045205
C           -0.05350989706658        3.58679180490754       -0.01349539851649
C           -1.01112127177143        4.28339656602798       -0.75409323190866
C           -1.02829380325715        5.66439678864482       -0.75820920042872
C           -0.09516846629390        6.37861364817449       -0.02408326887765
C            0.85878662067898        5.69817304786854        0.71532460099811
C            0.88284142321844        4.31729666548749        0.72164845600136
C            1.17964014652236        1.42611193470522        0.06235438349942
C            1.19663136432882        0.03393456540660        0.05903916422148
C            2.39537128643375       -0.75981728799969        0.02271459322957
C            2.27304431140143       -2.15222008591512       -0.17212134712765
C            3.37264293952630       -2.96742938195442       -0.19998917764366
C            4.65491693382770       -2.42288640841040       -0.03152867584182
C            5.78994714382366       -3.25138779532087       -0.05877136613071
N            6.71831960541750       -3.92842853963517       -0.08043094945356
C            4.79294353443034       -1.04035407677253        0.16727692190652
C            3.68730103273684       -0.22888626077643        0.18842918067646
N            0.00877248734654       -0.59057428752736        0.00621869316403
C           -2.21044745554167       -2.21516872881262        0.21016197267017
C           -3.28616788854025       -3.06158322768444        0.24540480895594
H           -5.75747808964169       -0.79915388678160       -0.31502758236360
H           -3.84249051264196        0.71110247374538       -0.37015925587773
H           -2.17375276386367        1.89248633182902       -0.03017383320679
H           -1.72717972102672        3.73846500384500       -1.35153027002994
H           -1.77312267269477        6.18742627018326       -1.33994054206350
H           -0.11129916451671        7.45787889565978       -0.02814945561576
H            1.58757204602244        6.24756584224923        1.29306131283427
H            1.61470327031094        3.79849741481521        1.32318515110637
H            2.11610963571873        1.95721062588216        0.01666721560079
H            1.28099618564404       -2.56265878372842       -0.29396838414543
H            3.26502943930931       -4.03255148395630       -0.34438599469939
H            5.78083115147514       -0.62373509222504        0.29823920536805
H            3.82323238693060        0.83090183684735        0.34025443668742
H           -1.20803343174739       -2.59429832108296        0.34729307359998
H           -3.14870941040558       -4.12019294094925        0.41076861227724
