43
 energy: -69.856723888078 gnorm: 0.000058395330 xtb: 6.7.1 (edcfbbe)
N           -6.71459360058285       -4.34038499433156        0.30584317803959
C           -5.77886017987000       -3.67962442692301        0.25676358037410
C           -4.62701781642174       -2.86297454838024        0.19667201972037
C           -3.40217694323302       -3.34308908991687        0.66456765511933
C           -2.28565030650959       -2.53793343651733        0.60353704725524
C           -2.36450582711207       -1.24442059108660        0.08472093112646
C           -1.14809470449981       -0.41999889144192        0.04023594078778
C           -1.19140226936944        0.97307690450060        0.05825804986196
C            0.00118346582383        1.68900592491849        0.00019897797164
C            0.00215966862276        3.15875737961356        0.00004938274181
C           -0.93479662747169        3.86653344662015       -0.74856231269968
C           -0.92974169119604        5.24887569108282       -0.75145001755322
C            0.00391503522521        5.94298491397258       -0.00011024481026
C            0.93671235542926        5.24778976765708        0.75128798555996
C            0.94001177076619        3.86544214295388        0.74857441370062
C            1.19281439635407        0.97148777906183       -0.05781560143445
C            1.14765238847780       -0.42152620004300       -0.03974299757438
C            2.36294303884648       -1.24758470400826       -0.08445832841834
C            3.58898469319127       -0.78258181757120        0.39006766514846
C            4.71142948476845       -1.58265289549315        0.33610868402060
C            4.62316635275558       -2.86929209445631       -0.19701820171655
C            5.77370524178049       -3.68777901567014       -0.25704598111960
N            6.70803424505474       -4.35055100256205       -0.30567479581074
C            3.39752004436235       -3.34772050569907       -0.66453530149849
C            2.28213859114445       -2.54100870746493       -0.60319578008576
N           -0.00066525955573       -1.08757834410879        0.00028688748249
C           -3.58972872277774       -0.77778584752780       -0.39031579734768
C           -4.71329884347058       -1.57629584890431       -0.33668629605748
H           -3.34084964459331       -4.34202325313794        1.07065905493654
H           -1.33026534152638       -2.89209478665005        0.95793927994854
H           -2.13011405771127        1.49603131453257        0.15077223962146
H           -1.65424801641257        3.32922225822391       -1.34952062335183
H           -1.65633195561930        5.78685821256467       -1.34233525247539
H            0.00461599178046        7.02267134337727       -0.00020459539633
H            1.66401249414710        5.78492935692054        1.34206492936567
H            1.65875909286821        3.32729500622198        1.34962703687193
H            2.13221531354643        1.49319148001294       -0.15038332091161
H            3.66555996321908        0.20268853561417        0.82455017195111
H            5.66031440249347       -1.22331797092135        0.70672607435890
H            3.33466681849064       -4.34659807276050       -1.07053180327149
H            1.32614602960481       -2.89386057948615       -0.95726480645582
H           -3.66477122451013        0.20753030004926       -0.82495960755709
H           -5.66154584630630       -1.21569213284978       -0.70770152042976
