107
 energy: -165.662780204363 gnorm: 0.000089585911 xtb: 6.7.1 (edcfbbe)
O           -9.51672107674157        0.62954456398750       -1.94320230195399
P           -8.45166856228953       -0.12531575827505       -1.25034735618960
C           -6.81653623790997        0.13549189836262       -2.01805858365143
C           -6.11477073406578       -0.86004233666766       -2.67901606085308
C           -4.88557129272359       -0.57026006830175       -3.24677367574451
C           -4.36184834183076        0.70903833507331       -3.16015104720307
C           -5.07309855262899        1.70993898502207       -2.51698929861527
C           -6.30090110225150        1.42358228536083       -1.95018293594117
C           -8.77540927803583       -1.91373730987608       -1.21062640638638
C           -7.95538039000171       -2.81542009299884       -0.53893486465061
C           -8.28513673106667       -4.15762816963826       -0.51880604703933
C           -9.43108514476538       -4.60589862943583       -1.15970831758633
C          -10.25274925419581       -3.70784199295529       -1.82309319528537
C           -9.92648746696776       -2.36396724978666       -1.84598498739842
C           -8.27235662367556        0.40019769286209        0.47955369768739
C           -9.35791206390247        1.00013073796378        1.10111366494416
C           -9.27516061959594        1.42242809715599        2.41408597089474
C           -8.09274027946267        1.22952416606855        3.12500305989417
C           -7.00075281900245        0.63648193199235        2.52375483506207
C           -7.07830905411732        0.21717672450294        1.19734152653485
O           -6.06648715307180       -0.42990891019315        0.55305466265816
C           -4.76983048237856       -0.04437163504452        0.66944239341780
C           -4.34525241171305        1.22603234308120        1.11793573468940
C           -3.02305962945707        1.54098395255431        1.14754647788732
C           -2.00238299930463        0.62434936421787        0.71059839469572
C           -0.63800013478142        0.96214070179512        0.72612435907917
C            0.34094304371679        0.23283164104384       -0.03081449953488
C            1.65664584312003        0.58363210762284       -0.03355488228611
C            2.13658202764979        1.65790541566047        0.74429355901649
C            3.57640809943443        2.09005378917283        0.66277953709008
C            4.53649423335720        0.94197789368718        0.45182131550456
C            4.35354560978010       -0.25549543253669        1.13722053243067
C            5.24413975632992       -1.29969241137208        0.98908514821367
C            6.34233965356996       -1.16494568880829        0.14366222140098
N            7.23895407949797       -2.22969076045359       -0.02808720270680
C            6.89683499061660       -3.52382478064199       -0.36414870033526
C            5.64742776037593       -4.06577917911103       -0.63469537983589
C            5.58481929659730       -5.40365433894862       -0.97675060022734
C            6.73364288828626       -6.18758153214278       -1.05844601990341
C            7.98256590334176       -5.64788893371742       -0.81290620304020
C            8.07097095238708       -4.30636078992912       -0.46812657463440
C            9.17216457087204       -3.42927907688093       -0.17428896670244
C           10.54643601608643       -3.61014105527132       -0.10429321805938
C           11.34002320067878       -2.52944512419401        0.23294855663848
C           10.77746385753665       -1.28623469968755        0.51445168542304
C            9.41182626336008       -1.08150518271237        0.45141944861481
C            8.61196334742117       -2.15687969315014        0.08828557799137
C            6.53995666785392        0.03524052524904       -0.53277833088022
C            5.64761204658706        1.07753477711608       -0.37164444372484
C            4.03583648851139        2.89390553508492        1.86754920781934
C            4.22625582951736        2.46609728209003        3.16331892095413
C            4.67108563074244        3.38191967387273        4.10898824146315
C            4.92341152604981        4.69981659276107        3.75785424872682
C            4.73674667567131        5.13498739719527        2.45579627543765
C            4.29169492582346        4.22619139853253        1.50779410324448
C            4.01110950717745        4.38722380498094        0.09234847817659
C            4.08152587881022        5.50176266930152       -0.72917217542150
C            3.75774051508859        5.36304669527307       -2.06856469085606
C            3.36638013644608        4.13286655782242       -2.58165589029401
C            3.28511949681531        3.01484319719287       -1.76417046401719
C            3.61729035280290        3.14452583484224       -0.43107878798349
C            1.19545662643710        2.39406646964610        1.49081333143443
C           -0.12837866531948        2.07252478797213        1.48284471946932
C           -2.47610826733385       -0.64814725921544        0.23042574905681
C           -3.79528596035684       -0.96714698526398        0.21937012893677
H           -6.52781732143456       -1.85740028470739       -2.73947250547926
H           -4.33345291212558       -1.34750421860697       -3.75488563137721
H           -3.39798523782046        0.92877173728135       -3.59477233628622
H           -4.66777692320516        2.70933558457621       -2.45353289993867
H           -6.87542837353088        2.18982268962120       -1.44330114537314
H           -7.06556996634664       -2.45969501930404       -0.04333367502574
H           -7.64769162438444       -4.85922319787526       -0.00024788263133
H           -9.68433455353725       -5.65569903253502       -1.13989593359549
H          -11.14646208852405       -4.05455558656452       -2.32133104396862
H          -10.55049949406563       -1.64268216816395       -2.35551778108822
H          -10.25845428376239        1.14337675846636        0.51981492188829
H          -10.12150075047697        1.89549089480402        2.88760074102531
H           -8.02748654068567        1.54015784694926        4.15673586319633
H           -6.09034250364391        0.46482898826332        3.08010619430525
H           -5.08634126338053        1.96091166523840        1.39775163331401
H           -2.73893315871768        2.53636544926839        1.44778148970252
H            0.01985427334332       -0.58374150345136       -0.65724315232802
H            2.35432380027862        0.02613323346218       -0.64266366546355
H            3.50059253984324       -0.37116009288975        1.78980333185843
H            5.10152116992655       -2.21938811856052        1.53670184338460
H            4.75365073305839       -3.46244451202598       -0.58933622411251
H            4.62451519424017       -5.85010559717513       -1.18936210311766
H            6.64359826493793       -7.22989491426832       -1.32681843865425
H            8.87293894568317       -6.25338897365386       -0.89170937666904
H           10.98316782294311       -4.57655240136047       -0.30648089479293
H           12.41195843694924       -2.64905905720142        0.28942777512328
H           11.42229615676771       -0.46493620019047        0.79091846624615
H            8.98306784177290       -0.11938167418592        0.68739959665618
H            7.38337413124088        0.14008438275709       -1.19880585731937
H            5.80969852492278        2.00250586514003       -0.90481068932879
H            4.03323902459602        1.44183146246906        3.44516342085297
H            4.82288410953509        3.06229764204291        5.12973760123121
H            5.26952843129575        5.39459088098087        4.50966597167996
H            4.93430848632822        6.16175938427136        2.18541651083823
H            4.38192121754861        6.46040218279848       -0.33251702759698
H            3.80707440938319        6.22143825132898       -2.72305261544835
H            3.11995814878412        4.04589423803376       -3.62991595610120
H            2.97350486427708        2.06275252638234       -2.16756851867551
H            1.53867579733383        3.22727677218453        2.08775747783308
H           -0.80459659398419        2.64439408889346        2.09787942232531
H           -1.76217651813360       -1.38769951244229       -0.09217439095601
H           -4.13409393599704       -1.93007873464278       -0.13116007399344
