  107
       -165.59599451
 O         -4.4756150374       -2.1610380708       -0.0716267453
 P         -5.7095196781       -1.3894484852       -0.2651610413
 C         -6.8023472043       -2.1171536472       -1.5352134931
 C         -6.1901987146       -2.9316277374       -2.4781739817
 C         -6.9253912697       -3.4718573048       -3.5172152883
 C         -8.2782985185       -3.1915988894       -3.6215608367
 C         -8.8923491556       -2.3760150804       -2.6835530339
 C         -8.1593179979       -1.8365798268       -1.6432479920
 C         -5.4580732737        0.2745226477       -0.9437240804
 C         -6.5072537033        1.1603787444       -1.1821938493
 C         -6.2582657720        2.3561760522       -1.8241951289
 C         -4.9748954538        2.6689844514       -2.2507183355
 C         -3.9335991997        1.7792130266       -2.0288812848
 C         -4.1763064813        0.5816027860       -1.3864722531
 C         -6.8163760392       -1.3727884374        1.1980337284
 C         -7.4597556647       -2.5862642755        1.4074301026
 C         -8.4110116925       -2.7393203030        2.3974575596
 C         -8.7630806961       -1.6435398414        3.1783701594
 C         -8.1250414288       -0.4355742446        3.0008541702
 C         -7.1255436434       -0.2941071816        2.0333226015
 O         -6.5331350956        0.9312736260        1.9482347106
 C         -5.2062528565        1.0321554619        1.6949931697
 C         -4.2580849205        0.0318362755        2.0233155006
 C         -2.9335721563        0.2525482092        1.8239599103
 C         -2.4372202649        1.4727471460        1.2427963908
 C         -1.0813029730        1.6570064513        0.9272026499
 C         -0.6373848362        2.7094248927        0.0571309895
 C          0.6766078335        2.8750931218       -0.2621828844
 C          1.6718223247        2.0272818676        0.2605565243
 C          3.1295231192        2.2970499260        0.0018323408
 C          3.9891138511        1.0559467872        0.0359927375
 C          3.5407502555       -0.1217868404       -0.5536059926
 C          4.3314953933       -1.2529047595       -0.5644756767
 C          5.5932985711       -1.2287313542        0.0237559850
 N          6.3875598925       -2.3820510952        0.0430783839
 C          5.9822079302       -3.6291473061        0.4729092294
 C          4.7571748024       -4.0328299746        0.9855080422
 C          4.6226319015       -5.3529749745        1.3712935845
 C          5.6791712357       -6.2540151997        1.2615517264
 C          6.9080704039       -5.8525266865        0.7746087053
 C          7.0674375663       -4.5314143782        0.3801868293
 C          8.1782472157       -3.7805712173       -0.1366276232
 C          9.4883741021       -4.1098188741       -0.4553064628
 C         10.3126690843       -3.1251115924       -0.9643950024
 C          9.8402973669       -1.8310194851       -1.1713809574
 C          8.5401897811       -1.4792181786       -0.8623169698
 C          7.7145124728       -2.4579009383       -0.3263173322
 C          6.0535635436       -0.0490128808        0.6004810200
 C          5.2599603607        1.0814848398        0.5961297075
 C          3.5276748913        3.3522426828        1.0182219551
 C          3.4940618303        3.2737976672        2.3949538233
 C          3.8769045183        4.3840824194        3.1328649176
 C          4.2713421716        5.5566906185        2.5012650705
 C          4.2952619282        5.6448678104        1.1198178099
 C          3.9216660186        4.5369247458        0.3754069316
 C          3.8504127490        4.3307972293       -1.0593459583
 C          4.1528375531        5.1756810634       -2.1159335645
 C          3.9824056274        4.7096111429       -3.4092215840
 C          3.5204894113        3.4236729489       -3.6457345970
 C          3.2178593118        2.5712698121       -2.5910382614
 C          3.3816637051        3.0307438988       -1.3031583888
 C          1.2665202715        1.0084922505        1.1449505813
 C         -0.0463645101        0.8113921958        1.4499083800
 C         -3.4219366536        2.4988162829        1.0100824124
 C         -4.7388198662        2.2981964188        1.2596612098
 H         -5.1353244261       -3.1400494280       -2.3707897212
 H         -6.4461512128       -4.1096189114       -4.2455560394
 H         -8.8565849731       -3.6105319236       -4.4317869803
 H         -9.9484293804       -2.1623596688       -2.7637330221
 H         -8.6447641411       -1.2152174133       -0.9040520979
 H         -7.5062666333        0.9163120275       -0.8513145804
 H         -7.0681777778        3.0491524310       -2.0021431685
 H         -4.7892491962        3.6049839112       -2.7564948941
 H         -2.9347131781        2.0180789611       -2.3642960972
 H         -3.3823084520       -0.1265858744       -1.2006077206
 H         -7.1956334070       -3.4153942001        0.7633795780
 H         -8.8875770064       -3.6948841360        2.5515531206
 H         -9.5265008170       -1.7399709733        3.9351699428
 H         -8.3671772752        0.4215620984        3.6105742003
 H         -4.5941546165       -0.8965995211        2.4605403576
 H         -2.2411576266       -0.5328667759        2.0744065924
 H         -1.3695545196        3.3583761672       -0.3949329100
 H          0.9684310946        3.6676929681       -0.9361197996
 H          2.5588169269       -0.1529236523       -1.0015682050
 H          3.9826156461       -2.1580095692       -1.0383148373
 H          3.9380148452       -3.3381662590        1.0914195650
 H          3.6780378892       -5.6919017526        1.7700550819
 H          5.5336535904       -7.2779116685        1.5714318953
 H          7.7312360876       -6.5473323528        0.7050451328
 H          9.8500691514       -5.1164850285       -0.3103854272
 H         11.3360846395       -3.3595355751       -1.2159442434
 H         10.5036919665       -1.0866254663       -1.5860396067
 H          8.1772312012       -0.4787786247       -1.0432171672
 H          7.0257806772       -0.0288831994        1.0693125898
 H          5.6267051754        1.9900654066        1.0493361879
 H          3.1807816370        2.3661273924        2.8891926550
 H          3.8661027302        4.3373047164        4.2117584883
 H          4.5598309655        6.4100005799        3.0972736617
 H          4.5979829029        6.5594871654        0.6319129982
 H          4.5130364326        6.1774311219       -1.9349550865
 H          4.2118255823        5.3547757466       -4.2446903937
 H          3.3942644511        3.0795572220       -4.6616558587
 H          2.8595820840        1.5710061879       -2.7829379214
 H          2.0176955398        0.3696531895        1.5872481382
 H         -0.3063863239        0.0305506417        2.1456510351
 H         -3.0967717544        3.4719757654        0.6813450896
 H         -5.4664910678        3.0796926928        1.1051345986
