107
 energy: -165.770308474328 gnorm: 0.000071185694 xtb: 6.7.1 (edcfbbe)
O           -9.20082514096935        0.00573755026086       -2.12560212494536
P           -8.24030451387186       -0.51578850293056       -1.13225810734200
C           -6.53002363216790       -0.50554457234061       -1.76636714966525
C           -5.75590120528167       -1.64447830137655       -1.92176149934683
C           -4.47063347588385       -1.53424476995771       -2.42464294693587
C           -3.96163970605854       -0.29421944126693       -2.77320263378089
C           -4.74052320088660        0.84299841563599       -2.63019648977306
C           -6.02454651254318        0.73628718772826       -2.12909699848148
C           -8.63890421845680       -2.20695560510686       -0.59315697012929
C           -7.97933221111164       -2.84630657486315        0.45014376897472
C           -8.34810385575762       -4.13079010791068        0.80707570959591
C           -9.37160546005222       -4.77740323847159        0.13064860925022
C          -10.03152889527602       -4.13923327296174       -0.90711815386638
C           -9.66599174487174       -2.85406261927726       -1.26742232442269
C           -8.20706243071325        0.52781148395565        0.36341111866674
C           -9.30358650394261        1.33881695407858        0.61684492257753
C           -9.31356908597208        2.18215407881895        1.71306931309672
C           -8.21814602251053        2.21535808273748        2.56212498777349
C           -7.11707650363202        1.41236980821500        2.32153438615275
C           -7.10773098518508        0.56441766456866        1.22052247016351
O           -6.08538176132596       -0.31328306415879        0.97205672513150
C           -4.78035600252058        0.11690298344201        0.95354524715657
C           -4.40874765629181        1.44310868450024        0.77583007501630
C           -3.07003067962340        1.77467186649599        0.69737573146962
C           -2.07946357881254        0.79957028643448        0.77447439330289
C           -0.65872806174480        1.15895102824222        0.65858968185200
C            0.20965402545771        0.38412507228554       -0.10717448389396
C            1.54317227402533        0.72269324076994       -0.22454513383770
C            2.05624126567594        1.83544401458616        0.43365540780251
C            3.50715272504149        2.23512530347006        0.24840984621158
C            4.43680527504740        1.04211382774626        0.15606544676394
C            4.24138269911805       -0.06263555524231        0.97882752389487
C            5.11266297633804       -1.13362614292613        0.94712742172215
C            6.20398470609275       -1.12107394685252        0.08395402270188
N            7.08420160748358       -2.21437944582670        0.03763154505577
C            6.72330082151949       -3.53305615370984       -0.15175618407061
C            5.46712815830262       -4.08466251322720       -0.36303004569409
C            5.38552737955249       -5.45041772110960       -0.55623195776914
C            6.52278366807059       -6.25599269726333       -0.54795147202095
C            7.77707495213776       -5.71102844046370       -0.35755712681314
C            7.88518566366639       -4.33989188328839       -0.16161114246395
C            8.99772459148091       -3.45398065197050        0.03904008255397
C           10.36982447222717       -3.64788162047708        0.13822976669362
C           11.17942763592513       -2.55098211793987        0.35683517054669
C           10.63611606735260       -1.27411759788677        0.48863274132011
C            9.27496932431362       -1.05558852000351        0.39422730100147
C            8.45789329366377       -2.15136935049064        0.15228381215887
C            6.41201236117950       -0.01506197540881       -0.73323850093793
C            5.54087630326641        1.05713218279209       -0.68726141610453
C            4.03002500082737        3.14526855902413        1.34563070359130
C            4.22397385692967        2.86186386009105        2.68090046933479
C            4.73849248889200        3.85403577698375        3.50542879610293
C            5.05665381664603        5.10516193778040        2.99869972626674
C            4.86876377730182        5.39439994759046        1.65645857284460
C            4.35512772523332        4.40821736993223        0.82980594121764
C            4.05902417251902        4.41802463595020       -0.59413163424391
C            4.18533259129128        5.42163066529769       -1.54111048539053
C            3.82309388896680        5.14887278997764       -2.85067764421108
C            3.34077003359619        3.89842592687349       -3.20743095359142
C            3.21001836039112        2.88991276067026       -2.26159156928606
C            3.57556708808513        3.15329715755818       -0.95854241007912
C            1.19054408418315        2.61647736383262        1.18898517789301
C           -0.14636627780139        2.28396465090347        1.29938923112493
C           -2.46930742117528       -0.52748620542020        0.94704082908406
C           -3.80209640862771       -0.86844334050592        1.04106683610861
H           -6.15712411617018       -2.60888480845239       -1.64418240072339
H           -3.86412635288061       -2.42041262151342       -2.54217868951709
H           -2.95683233549580       -0.21137623914017       -3.15988408354702
H           -4.34573355857645        1.80993536344271       -2.90560622600067
H           -6.65435226065439        1.61017763303430       -2.01407646485901
H           -7.18283361835028       -2.33773947504080        0.97012702645339
H           -7.83666156901759       -4.63004201295294        1.61724508810325
H           -9.65560407905414       -5.78019657181359        0.41439936291308
H          -10.83025581887876       -4.64043855253983       -1.43409688132877
H          -10.16738067576213       -2.33225240935217       -2.07082177258058
H          -10.13365498348246        1.30313328240741       -0.07484466635386
H          -10.16849552171282        2.81277036813660        1.90351347785144
H           -8.21895067779262        2.86981048696312        3.42076780765540
H           -6.26346290523955        1.43149388743270        2.98375073780344
H           -5.16424118319514        2.20947236131682        0.68219627200284
H           -2.79253293478523        2.80656360598331        0.54122854561404
H           -0.17045623427037       -0.47945092624797       -0.63318973552999
H            2.19568099095077        0.11046517019937       -0.83028733017785
H            3.39510630382582       -0.08898491325665        1.64924476653078
H            4.95785523693529       -1.98054842501008        1.59911324652450
H            4.58168214822180       -3.46744901889891       -0.38576754996277
H            4.41887977275814       -5.90416887960691       -0.72080290281580
H            6.41722923318230       -7.32019884316685       -0.70083025060011
H            8.65935116264847       -6.33380260195459       -0.36480394242017
H           10.79032142603293       -4.63870915282888        0.05025248023427
H           12.24909910040413       -2.68036163254170        0.43494787607315
H           11.29404273036200       -0.43720921162269        0.67341731639319
H            8.86163297920806       -0.06522486226389        0.51341409018732
H            7.25231147220987       -0.00298669884054       -1.41149556789463
H            5.71803157559323        1.90965611049744       -1.32604536138064
H            3.97963860148101        1.89030072661632        3.08382631532551
H            4.89297957701820        3.64761857249600        4.55463592412392
H            5.45671579684172        5.86200448605052        3.65816796611332
H            5.11913581890737        6.36892166563591        1.26398380329864
H            4.55852969176650        6.39705325019053       -1.26602351414298
H            3.91557841586315        5.91919755871218       -3.60282861963977
H            3.06276500830254        3.70625320649704       -4.23364423668533
H            2.83271018538804        1.91894967597531       -2.54615934603212
H            1.56465177818160        3.49265467313489        1.69844842792219
H           -0.79775743426061        2.89508852167152        1.90710636390793
H           -1.71834916488771       -1.29919727981498        1.02526884957807
H           -4.10537893942630       -1.89538690517956        1.17301612501194
