107
 energy: -165.662273732108 gnorm: 0.000061478279 xtb: 6.7.1 (edcfbbe)
O           -4.48101428328877       -2.07239052727298        0.00284400329947
P           -5.76919267527260       -1.41618108509375       -0.28940031284608
C           -6.78958112929975       -2.39395045622290       -1.44387425935953
C           -6.11641451224618       -3.31041114059759       -2.24256435598373
C           -6.80030490276433       -4.04062360200211       -3.19707990779434
C           -8.16326712610683       -3.85066716219724       -3.36419834297593
C           -8.83806315271305       -2.93313712410531       -2.57276838703008
C           -8.15670670909641       -2.20281839817644       -1.61743797243388
C           -5.61968471707992        0.15615037077923       -1.17519170989443
C           -6.72526305910655        0.94895885784657       -1.48525799078000
C           -6.56556119678198        2.06242754652457       -2.28384080843326
C           -5.31575591240793        2.38459423223266       -2.79668648739159
C           -4.21809415029371        1.58736998794318       -2.50225660652005
C           -4.36952264088519        0.47492139068218       -1.70003519151422
C           -6.87006767044571       -1.26349694610766        1.16780603239737
C           -7.50574073125695       -2.44388928537666        1.53379400214051
C           -8.44657269151681       -2.47189693184029        2.54543981243766
C           -8.79628526141232       -1.28695964535810        3.18449190873024
C           -8.16467143806756       -0.10826400210466        2.85038920905112
C           -7.17540940259598       -0.08949859348933        1.86352878551921
O           -6.58079779415361        1.11514991660111        1.61349567054415
C           -5.24253334963284        1.17899231603765        1.38228482768290
C           -4.30730523358718        0.24695173025098        1.89153434416072
C           -2.97410411977163        0.45264724415543        1.73110839840339
C           -2.44556184963809        1.59812647459078        1.03680078809102
C           -1.06768070124262        1.77603661167310        0.81164612323972
C           -0.55528089928103        2.81795286293537       -0.03343748188295
C            0.78032586988159        2.98768272839811       -0.24882463323014
C            1.73473594789548        2.14176345184193        0.34514984613947
C            3.21138046882968        2.39178570391507        0.18693462370511
C            4.03765821071987        1.12566995944136        0.19062071190323
C            3.57586627571144       -0.01117669981057       -0.46606838466687
C            4.34250032762651       -1.15782797330259       -0.52117589107698
C            5.59503288589236       -1.18972769782168        0.08637413475329
N            6.37243294174906       -2.35634069617397        0.04470072975605
C            5.94705505147240       -3.62104575464728        0.39771196169803
C            4.72075883250896       -4.03252367125413        0.90266051556835
C            4.56300578484630       -5.37293846133301        1.20150710510083
C            5.59822155861252       -6.28632471711228        1.01428728894271
C            6.82898194148837       -5.87853169568835        0.53442071008052
C            7.01127412397397       -4.53751701702391        0.22679600845113
C            8.12986978692082       -3.77641422085777       -0.26070290374935
C            9.42618963763665       -4.11050307333800       -0.62708732954307
C           10.26214735482253       -3.11068068789304       -1.08847407626307
C            9.81475724201353       -1.79579563090929       -1.19844572965062
C            8.52822058434971       -1.43876672569550       -0.84023273381884
C            7.69129793838387       -2.43452492365879       -0.35429727529071
C            6.06747437204159       -0.05287345648816        0.73587034105099
C            5.29669722266529        1.09289281318079        0.77814907812700
C            3.58243244538090        3.37856077532517        1.28240183622448
C            3.48120664813234        3.22564194711373        2.64992654622340
C            3.85501641728605        4.28307667204566        3.46711160037426
C            4.30785849819479        5.47757947977192        2.92299566932240
C            4.40270996726202        5.64009464737988        1.55058187466011
C            4.03858525253647        4.58539186757492        0.72830986523907
C            4.04178675583540        4.45994507396083       -0.71891235385555
C            4.42755625886048        5.35146775011237       -1.70788801851779
C            4.32723958219282        4.95852774225394       -3.03288997509092
C            3.85162246277584        3.69885825137867       -3.36570713693475
C            3.46345743273999        2.80102710308363       -2.37902977144715
C            3.55719041618734        3.18821913815921       -1.05979467788910
C            1.26088801367811        1.12350711406954        1.19550218481312
C           -0.07128921388745        0.93544432083868        1.41259900603800
C           -3.42603235549627        2.56164266826667        0.60592748167364
C           -4.75560603452153        2.37233915441679        0.79362460945098
H           -5.05435741885247       -3.44566377275371       -2.08865021662032
H           -6.27210914474193       -4.75626462197950       -3.81039523226794
H           -8.70081918899196       -4.41906574404749       -4.10875078670615
H           -9.90106863839671       -2.78832973737200       -2.70052640336528
H           -8.68712239094776       -1.49942555893206       -0.99142347533221
H           -7.69730288696290        0.69629777717644       -1.08671366498338
H           -7.41989739544090        2.68206624383377       -2.51642245354598
H           -5.19949100059675        3.25448709570797       -3.42580621825681
H           -3.24631531569894        1.83158679018372       -2.90562369914428
H           -3.52993944063375       -0.16011498184883       -1.45311385160042
H           -7.24444076511530       -3.34754246759288        0.99660788014001
H           -8.91711605244177       -3.40214988311628        2.82335549869095
H           -9.55238237681653       -1.28928750409227        3.95462938296456
H           -8.40330122492959        0.81910053556780        3.34876438211223
H           -4.66082848808765       -0.61865751071336        2.43403403220507
H           -2.29988191759680       -0.28520357130920        2.13227520298691
H           -1.24347224857613        3.47481323775228       -0.53924824574379
H            1.11723178582548        3.78292987760546       -0.89868299584618
H            2.60348880622823        0.00198216623639       -0.93634641800820
H            3.98163517477375       -2.02874832343814       -1.04781550397320
H            3.91753596510824       -3.33023925430298        1.06580654849407
H            3.61710937628850       -5.71889337665164        1.59191200319426
H            5.43532432520669       -7.32605744709297        1.25699829166564
H            7.63485818427821       -6.58513249219567        0.40459733126479
H            9.76965449146649       -5.13161311263944       -0.55666479634879
H           11.27513144792029       -3.34988465526561       -1.37688970306407
H           10.48639258393167       -1.03907486989538       -1.57654456790517
H            8.18514351273327       -0.42076864462062       -0.94550542590849
H            7.03190904231178       -0.07676782759853        1.22079982595579
H            5.67389015205414        1.96825554657070        1.28576623270693
H            3.12437771139032        2.30158738673935        3.07975980931290
H            3.79055263498984        4.17559188550699        4.54017111704152
H            4.58756697405562        6.28937508965107        3.57889410823819
H            4.75303512878797        6.57113712808934        1.13010785650315
H            4.79958079941936        6.33243150988639       -1.45189815431533
H            4.62332634895787        5.64037225410961       -3.81715989842696
H            3.78193007181035        3.41115854453826       -4.40468736344663
H            3.09385763505875        1.82222484494454       -2.64613696617051
H            1.97461037079181        0.47507284153337        1.68418217486168
H           -0.37597543240393        0.14806506298449        2.08230220224025
H           -3.09954605577744        3.48299558602350        0.15378715732843
H           -5.47727805519898        3.11080202300651        0.47979055987880
