  112
       -165.50184739
 C         -6.6171709109        6.2506620326        0.2073662401
 C         -5.2578205794        5.5809964905       -0.0392546531
 C         -4.2806494194        5.9533928335        1.0850657680
 C         -4.6935200245        6.1152759293       -1.3583825855
 C         -5.4436376914        4.0726410974       -0.0505835697
 C         -5.1274520651        3.2795791808       -1.1477927911
 C         -5.3015367026        1.9079238382       -1.1192359849
 C         -5.8006418708        1.2910407726        0.0212358262
 N         -5.9550062146       -0.1049312982        0.0599301757
 C         -4.9082344883       -1.0488422899        0.0388530228
 C         -3.5328168102       -0.8023121200        0.0956347265
 C         -2.6521843426       -1.9072408924       -0.1337004409
 C         -1.3046835967       -1.7572494934       -0.1443088739
 C         -0.6858815418       -0.4922970755        0.0741429806
 C          0.7290074339       -0.3148620204        0.0101735641
 C          1.3062995989        0.9611183632       -0.2043168523
 C          2.6634809931        1.1397272549       -0.2712493873
 C          3.5310702458        0.0519743425       -0.1260473151
 N          4.9331557327        0.1928799609       -0.2035087736
 C          5.5835545717       -0.3313434319       -1.3096483836
 C          4.8570403980       -0.6786975829       -2.4526425097
 C          5.5031691637       -1.1430083557       -3.5791833484
 C          6.8845119771       -1.2514517694       -3.5959710006
 C          7.6103716036       -0.9079158886       -2.4686268532
 C          6.9781220806       -0.4550590684       -1.3212993251
 C          7.7418174919       -0.1873684806       -0.0442932910
 C          9.1689414322        0.2114626884       -0.3730715743
 C         10.2684723364       -0.5542282072       -0.0153440747
 C         11.5481016656       -0.1438294964       -0.3535023907
 C         11.7433375224        1.0320284948       -1.0548391759
 C         10.6489754464        1.7977832367       -1.4242445291
 C          9.3732116149        1.3888949713       -1.0877332179
 C          7.6905128246       -1.4370934237        0.8422600349
 C          7.3450503509       -2.6800869300        0.3277858118
 C          7.3013932347       -3.7961493547        1.1463224901
 C          7.6039737894       -3.6899900552        2.4916613962
 C          7.9568827449       -2.4564026551        3.0118685558
 C          7.9984743450       -1.3414706352        2.1951554924
 C          7.0375026890        0.9152009916        0.7225010759
 C          7.7368877682        1.7770486119        1.5522875212
 C          7.0768170524        2.6506578352        2.3993627545
 C          5.6934262750        2.6279451619        2.4542365864
 C          4.9778485896        1.7955382589        1.6186080136
 C          5.6354159410        0.9660328708        0.7060148369
 C          2.9866534060       -1.2235674758        0.0603980364
 C          1.6304063375       -1.4010287499        0.1335438520
 C         -1.5639080068        0.5885192841        0.3701053779
 C         -2.9153951488        0.4494943742        0.3905654829
 N         -5.4105332161       -2.2982613888       -0.0078338523
 C         -6.7315263307       -2.1825759102        0.0100615079
 C         -7.6984868424       -3.2306062968        0.0171122323
 C         -7.2991425694       -4.5687881743        0.0384454600
 C         -8.2368094331       -5.5757947075        0.0703061048
 C         -9.5873893528       -5.2444171142        0.0851699060
 C         -9.9920918555       -3.9264059077        0.0606493819
 C         -9.0673438040       -2.8736214278        0.0204516678
 C         -9.4616896577       -1.4766547242       -0.0319260393
 C        -10.8046729728       -1.0963224671       -0.0986547331
 C        -11.1934776300        0.2230211321       -0.1812778791
 C        -10.2320570354        1.2331974505       -0.2155249868
 C         -8.9033454276        0.9099570867       -0.1450905405
 C         -8.4793301097       -0.4322017046       -0.0374419117
 C         -7.1266466744       -0.8152012054        0.0342890708
 C         -6.1286634324        2.0703590726        1.1278516337
 C         -5.9498816854        3.4373089444        1.0832411586
 H         -6.5077408904        7.3328393192        0.1992046652
 H         -7.0356846292        5.9589818735        1.1665447177
 H         -7.3218447507        5.9692886879       -0.5725196043
 H         -4.1172745316        7.0287497499        1.0976144839
 H         -3.3229022454        5.4607583512        0.9295200270
 H         -4.6621055233        5.6566017497        2.0580084262
 H         -3.7156906323        5.6877553709       -1.5678799062
 H         -4.5799130494        7.1953088519       -1.2921573751
 H         -5.3633581822        5.8991806492       -2.1874130315
 H         -4.7374384319        3.7202603403       -2.0498363152
 H         -5.0418909690        1.3060760110       -1.9774414696
 H         -3.1086233925       -2.8650876370       -0.3241341601
 H         -0.6870120811       -2.6136216542       -0.3662966848
 H          0.6644918471        1.8118028354       -0.3698781773
 H          3.0729085186        2.1183372292       -0.4783187865
 H          3.7837309038       -0.5716762149       -2.4519743952
 H          4.9260158374       -1.4114747128       -4.4511332020
 H          7.3936548807       -1.6090736339       -4.4776124524
 H          8.6850897155       -1.0096984220       -2.4718103875
 H         10.1309446145       -1.4765823735        0.5284082960
 H         12.3950863121       -0.7496148398       -0.0662182834
 H         12.7415863338        1.3505406005       -1.3155244104
 H         10.7912001673        2.7151305087       -1.9764093072
 H          8.5199535253        1.9853537857       -1.3778400375
 H          7.1103058569       -2.7881807003       -0.7199479384
 H          7.0291025118       -4.7534299292        0.7259383301
 H          7.5672636727       -4.5604991091        3.1294130678
 H          8.2003936819       -2.3599802089        4.0598435810
 H          8.2747895619       -0.3871033743        2.6161223995
 H          8.8166189660        1.7563705020        1.5444681863
 H          7.6396934400        3.3167531190        3.0349425870
 H          5.1659675814        3.2645125562        3.1486312148
 H          3.9022657970        1.7787361245        1.6794030013
 H          3.6577313838       -2.0640366925        0.1675370509
 H          1.2470009303       -2.3897773178        0.3270064443
 H         -1.1424314281        1.5461310753        0.6371065997
 H         -3.5221493349        1.2924277483        0.6748533734
 H         -6.2408422634       -4.7785367466        0.0339782518
 H         -7.9310355774       -6.6109851766        0.0874957179
 H        -10.3313974262       -6.0272966682        0.1160097625
 H        -11.0508199364       -3.7219316543        0.0761001490
 H        -11.5757329930       -1.8499252620       -0.0944796057
 H        -12.2423566212        0.4739257970       -0.2307315615
 H        -10.5346927807        2.2663660261       -0.3008761170
 H         -8.1642300933        1.6924190910       -0.1874596467
 H         -6.5192994382        1.5950697151        2.0158940697
 H         -6.2072950449        4.0152352736        1.9573175118
