56
 energy: -74.165598723947 gnorm: 0.000078562414 xtb: 6.7.1 (edcfbbe)
C           -7.68476523046615        4.28203375157142        1.63340288536195
C           -6.98098615331408        3.38372999925409        0.62381328869452
C           -7.47404729876217        1.94094268698622        0.70381024555079
C           -6.76203683223795        1.03709213893698       -0.29911221185975
C           -7.24649670531310       -0.40745809279852       -0.21294358308143
C           -6.52663848155371       -1.32309729804900       -1.21420878758226
C           -5.06203517139136       -1.41227879591152       -0.90850754997099
C           -4.60487621217326       -2.21606340850898        0.13380031200022
C           -3.26905495777768       -2.26192353894620        0.45810555431411
C           -2.31841095544894       -1.49728202342765       -0.24175300700012
C           -0.94596576554562       -1.56239198260188        0.15824521013165
C            0.08513419812512       -0.83098847338465       -0.36235500540125
C            1.44156536750977       -0.86953628775763        0.04314882344183
C            1.94658307553348       -1.71773466641991        1.04259904411353
C            3.27054643712328       -1.69596496179333        1.39884419168093
C            4.19593821478989       -0.81812186675675        0.78237634811437
C            5.53412616433167       -0.77840665938151        1.13829146724774
C            6.45547654880168        0.10879078820728        0.51596267047816
C            7.79952058608646        0.15193729332488        0.87663818896434
C            8.68000590793009        1.03077706400153        0.25196963912402
C            8.22501439875562        1.87813140352228       -0.74332383789736
C            6.89153055966686        1.85615858384860       -1.12267492811395
C            5.98255297847311        0.98099727472909       -0.50942241825681
C            4.62451420746135        0.93830009536993       -0.87209101237661
C            3.70916497333819        0.05581340659692       -0.24651106701305
C            2.37098055442323        0.01386658480736       -0.59349446929750
C           -2.78842296329576       -0.70213507065981       -1.30020488474376
C           -4.12681209939685       -0.66560871472003       -1.62052612569908
H           -7.50820581561343        3.92771518551877        2.64673201402649
H           -7.31892066026378        5.30349474336984        1.55859653458563
H           -8.75814300879976        4.28794357111872        1.45597438729111
H           -5.90419335951465        3.40549616251945        0.80700360792695
H           -7.15216526218500        3.76776228045699       -0.38458332400930
H           -7.30699258576720        1.55966890004738        1.71413258270680
H           -8.55037070449611        1.91654187389044        0.51557551592016
H           -5.68653020908688        1.06791727048893       -0.11008113201409
H           -6.93254032256139        1.41599806591429       -1.30997645966092
H           -7.07944412156933       -0.78324405809275        0.79901271217474
H           -8.32068269483750       -0.44184056035442       -0.40954633865931
H           -6.97322408194262       -2.31908001502163       -1.16127418280964
H           -6.67422521363355       -0.93512231136044       -2.22407215740902
H           -5.31349616474876       -2.81152269216787        0.69262443662978
H           -2.93684536309488       -2.89201896809859        1.27150507461423
H           -0.73944047539000       -2.25219865775089        0.96559160009334
H           -0.13317648937448       -0.13112331471583       -1.15847786988047
H            1.28188657316342       -2.40507677939541        1.54336025445713
H            3.63276687489949       -2.35986589667452        2.17120380327781
H            5.89875186078838       -1.43758058272884        1.91385380052441
H            8.15876598676221       -0.50810354667785        1.65344479440426
H            9.71867729332997        1.04864099315071        0.54708288038816
H            8.90897877911402        2.55979000104350       -1.22749560908374
H            6.53751296018627        2.51839087314580       -1.89969293021799
H            4.26527730044858        1.59849411692725       -1.64851610965976
H            2.00648140625006        0.67355604708935       -1.36868213841299
H           -2.09565015676830       -0.10912023291293       -1.87691662609255
H           -4.46114076387726       -0.04400887970068       -2.43952389906767
