  95
       -147.93465103
 C         -2.0970122212       -3.3453773370        3.8868134663
 C         -2.1169777457       -2.1485963171        3.1887017721
 C         -2.4036416312       -2.1357885924        1.8372726409
 C         -2.6602924698       -3.3317757864        1.1743940231
 N         -2.9525504989       -3.3236037168       -0.1988039015
 C         -2.2605407695       -2.6882190808       -1.2115709143
 C         -0.9965013958       -1.9979648790       -1.0115742417
 C         -0.0332549772       -2.4388070239       -0.1065839202
 C          1.1073842119       -1.6910845221        0.1127082079
 C          1.3033996113       -0.4855205439       -0.5528250775
 C          2.4292389531        0.4018831824       -0.2068250502
 C          3.7375484254       -0.0489357143       -0.2755063684
 C          4.7977087397        0.8033877917        0.0180712674
 N          6.1136996438        0.3296241805       -0.0411796419
 C          7.1666446892        0.9355363810       -0.6984644757
 C          7.1799208152        2.0832655455       -1.4779758751
 C          8.3795932166        2.4606132461       -2.0503035431
 C          9.5412364328        1.7144497927       -1.8644596611
 C          9.5285865869        0.5576340512       -1.1113524128
 C          8.3346937690        0.1580409861       -0.5255338196
 C          7.9596141544       -0.9687340881        0.2819881173
 C          8.6606109679       -2.0525511012        0.7940137257
 C          7.9847171127       -2.9686576115        1.5747600275
 C          6.6309602923       -2.8058559191        1.8598908797
 C          5.9123823698       -1.7359501940        1.3618484615
 C          6.5801277891       -0.8253829607        0.5556434203
 C          4.5393451123        2.1254304166        0.3695867254
 C          3.2358422082        2.5780928246        0.4378630141
 C          2.1697597519        1.7286859031        0.1713356530
 C          0.7736850613        2.1811971368        0.2958252675
 C          0.3052698851        3.2869391868       -0.4058434919
 C         -1.0403322683        3.6032868504       -0.4090834171
 C         -1.9384505095        2.8236204586        0.3118632755
 N         -3.3186168436        3.0460244601        0.2379656405
 C         -3.9871809062        4.2335245861        0.4503775970
 C         -3.4854467656        5.4781542058        0.8013686727
 C         -4.3876399410        6.5097143231        0.9778409344
 C         -5.7576593701        6.3125674097        0.8193201294
 C         -6.2639659358        5.0707866337        0.4908624852
 C         -5.3777262415        4.0178932206        0.3065690866
 C         -5.5450565562        2.6287835282       -0.0200547921
 C         -6.6501832849        1.8341288024       -0.2977571439
 C         -6.4477346956        0.5063756746       -0.6174880216
 C         -5.1630469093       -0.0292639944       -0.6836249304
 C         -4.0490721345        0.7401236418       -0.4090457485
 C         -4.2489791763        2.0670865536       -0.0547947517
 C         -1.4606147594        1.7741994000        1.0934994149
 C         -0.1213569561        1.4538216449        1.0787003031
 C          0.3817172468       -0.0952496818       -1.5231924949
 C         -0.7501138243       -0.8443787373       -1.7565011331
 N         -2.8651084493       -2.7670582147       -2.3649102453
 C         -4.0136017311       -3.4756666097       -2.1465393962
 C         -5.0324504792       -3.8329021202       -3.0232463663
 C         -6.1027298904       -4.5322598061       -2.5082339833
 C         -6.1763820817       -4.8693689281       -1.1547607289
 C         -5.1763994808       -4.5269198242       -0.2668046525
 C         -4.0896700414       -3.8381967387       -0.7804690156
 C         -2.6435164520       -4.5331963184        1.8736406029
 C         -2.3638554003       -4.5338603652        3.2285152256
 H         -1.8759169309       -3.3510760748        4.9433535110
 H         -1.9157546623       -1.2199338963        3.7017290498
 H         -2.4327605562       -1.2082608101        1.2867612222
 H         -0.1736100872       -3.3659301807        0.4295031630
 H          1.8363168062       -2.0252703110        0.8373215660
 H          3.9376575125       -1.0621118332       -0.5918268518
 H          6.2814411403        2.6583188435       -1.6441390226
 H          8.4165675875        3.3525211833       -2.6583338934
 H         10.4598501055        2.0444829251       -2.3263264947
 H         10.4246449318       -0.0303694351       -0.9815655337
 H          9.7135525239       -2.1695946524        0.5865829809
 H          8.5103716193       -3.8205047795        1.9798491699
 H          6.1325110819       -3.5307444552        2.4866500073
 H          4.8682404633       -1.6080266934        1.6047600384
 H          5.3598480863        2.7843231803        0.6098422395
 H          3.0363732264        3.5983100455        0.7320716230
 H          0.9948113604        3.8716683671       -0.9975830110
 H         -1.4055601998        4.4288540475       -1.0013711928
 H         -2.4263132798        5.6348933188        0.9413195649
 H         -4.0230693669        7.4899819906        1.2476358223
 H         -6.4300955745        7.1451292601        0.9636979134
 H         -7.3267309885        4.9159675857        0.3807863011
 H         -7.6448862731        2.2529840632       -0.2702381645
 H         -7.2928127835       -0.1293061049       -0.8359725596
 H         -5.0387837717       -1.0636728381       -0.9679231568
 H         -3.0533654886        0.3290368179       -0.4933131807
 H         -2.1536327329        1.2131078087        1.7028034112
 H          0.2400641436        0.6288739480        1.6746881648
 H          0.5534044559        0.8112240373       -2.0844435402
 H         -1.4751689298       -0.5425312296       -2.4963435031
 H         -4.9770994737       -3.5581431976       -4.0641315028
 H         -6.9121495668       -4.8230549279       -3.1615060126
 H         -7.0397207803       -5.4086682724       -0.7942009427
 H         -5.2427978681       -4.7767912293        0.7816937031
 H         -2.8368529308       -5.4580709922        1.3503971841
 H         -2.3503311615       -5.4680440114        3.7699309914
