63
 energy: -105.641904655434 gnorm: 0.000064584171 xtb: 6.7.1 (edcfbbe)
N            1.88065262810875        3.59745858249129       -0.95516084573745
C            1.42406116771606        2.61777097791689       -0.56371379713806
C            0.84148643319401        1.40976096209208       -0.13191469819840
C           -0.53197849898834        1.27228765353470       -0.19940781823569
C           -1.15608782266890        0.05473237971983        0.12296336392907
C           -2.56685070488839       -0.07284507610278        0.05872287729439
N           -3.32701506779448        0.99719081302071       -0.28126867296061
C           -4.62732262144249        0.85058191763538       -0.31807414170295
C           -5.45759616991846        2.00250949987643       -0.66002982562579
C           -4.87150650062937        3.23417395213326       -0.95539682275922
C           -5.66226015960441        4.32030453198614       -1.27404383308347
C           -7.04346041521972        4.19304405647313       -1.30257085967776
C           -7.63256249586089        2.97245072212726       -1.00945440306863
C           -6.84725964273334        1.88186145347825       -0.69032083364418
N           -5.24631016118125       -0.31559517366458       -0.05451671049707
C           -4.45309623947053       -1.35252012920474        0.27097639240737
C           -5.08898982945895       -2.63550486628691        0.56013816695456
C           -6.47506048786975       -2.76850381018781        0.47437640668961
C           -7.07457511277579       -3.98245261409366        0.74861101251697
C           -6.30143373010449       -5.07539418884311        1.10982737381109
C           -4.92242429426280       -4.95040707382235        1.19602880700282
C           -4.31696295437146       -3.73993495494843        0.92303804209169
N           -3.14884071261294       -1.26387163242783        0.34354439383415
C           -0.33276649412385       -1.03982344334680        0.49846079529094
C            1.02669646938913       -0.90321824031310        0.57539100799634
C            1.64602006935806        0.31842484420464        0.28572354304410
N            3.03743811883562        0.44624587155787        0.37827874283009
C            3.74183842428608        1.45050670748498        1.04893745240724
C            3.25813465867306        2.48296763502030        1.82779177538482
C            4.18177809999977        3.34360945696440        2.40580367539364
C            5.54980861427632        3.16873468167230        2.22241043314374
C            6.04308776033205        2.11553830228352        1.47603919329078
C            5.13777835434110        1.23483384674541        0.88769755699807
C            5.26924552341816        0.04768629660172        0.11386802517283
C            6.24017152403842       -0.81650842178662       -0.45753448573223
C            7.63561688036524       -0.75422741468803       -0.42920581368289
C            8.37331021561659       -1.73229403740564       -1.06535485160981
C            7.74636364544206       -2.77830462622404       -1.73371269429170
C            6.36068497653604       -2.86284578763314       -1.77992538934149
C            5.62230185384433       -1.88695395493441       -1.14602176477093
S            3.84899046105524       -1.82340211544902       -1.09389832778942
C            3.95669951851117       -0.38653716932552       -0.15468054287111
H           -1.14295487953377        2.10222610785314       -0.52080004846164
H           -3.79570214712468        3.31885748309359       -0.92899239803916
H           -5.20188373493704        5.27055778911369       -1.50162328704811
H           -7.65899662467805        5.04447310462951       -1.55206991055650
H           -8.70776360991232        2.87199050344974       -1.03051880074242
H           -7.28968546064249        0.92513972574895       -0.45895681372344
H           -7.06230432580777       -1.90862660405578        0.19088563832340
H           -8.14823942814167       -4.07840889401753        0.68032984342292
H           -6.77227085761529       -6.02340001346787        1.32381419903507
H           -4.31929435288236       -5.80120526544707        1.47705113991838
H           -3.24550132025747       -3.62674510615776        0.98552811256614
H           -0.80844174529399       -1.97849679754881        0.73125966680160
H            1.64093242352194       -1.73752441122617        0.88066921116721
H            2.20025585779715        2.61992011660309        1.99028365338087
H            3.82596351770853        4.16277201566078        3.01132641420899
H            6.23581375335933        3.86321473340402        2.68263119427858
H            7.10471770241708        1.97264375679301        1.35403752385126
H            8.12079532936229        0.05662953507814        0.08974854023002
H            9.45142964483754       -1.68621318592271       -1.04394816696162
H            8.33903381946929       -3.53492241787813       -2.22423905739268
H            5.87044418924204       -3.67161249859623       -2.29886234675492
