63
 energy: -105.641923220973 gnorm: 0.000049201075 xtb: 6.7.1 (edcfbbe)
N            1.91662036230628        3.60284863125664       -0.78093205658356
C            1.44722761663973        2.61246173338962       -0.43418863193631
C            0.85133085156555        1.39356625255017       -0.05448393734126
C           -0.52269268629880        1.26975293740323       -0.13374910415245
C           -1.15811374318055        0.04739541221939        0.14579482455248
C           -2.56939876730154       -0.06598241363856        0.06868516074776
N           -3.31602307632508        1.01456306890291       -0.26830589862439
C           -4.61683086189723        0.87983685886821       -0.32478355271378
C           -5.43119950425981        2.03937017705914       -0.67909886864942
C           -4.82908130554187        3.26475736988474       -0.96831891310471
C           -5.60439480066895        4.35687263911596       -1.30397776949480
C           -6.98596882739688        4.24180912699051       -1.35613107594503
C           -7.59101517402627        3.02766847070895       -1.06873544929322
C           -6.82118663815107        1.93118294759194       -0.73249298032765
N           -5.25007688134701       -0.28144820371499       -0.07361491023225
C           -4.47039423341456       -1.32799727736673        0.25407124085635
C           -5.12251768421806       -2.60443960801935        0.53585696182533
C           -6.50985494332871       -2.72018184166309        0.44563801572769
C           -7.12518198903596       -3.92709629441651        0.71582353762773
C           -6.36670895716193       -5.03024104003090        1.07712440080457
C           -4.98649417218919       -4.92248016459991        1.16747387758531
C           -4.36528219107516       -3.71901202950795        0.89892115409935
N           -3.16579154939006       -1.25405715054262        0.33567249349261
C           -0.34579011454194       -1.06548747190193        0.49012974755943
C            1.01490999879222       -0.94397342160986        0.57346881369634
C            1.64499719891016        0.28115955666253        0.32623710593308
N            3.03772625520802        0.39508652712284        0.42369346730387
C            3.74805460368121        1.36264224377429        1.13977570059043
C            3.26989038766129        2.35729020333618        1.96959064760620
C            4.19825550934434        3.18520900425984        2.58640957780840
C            5.56511437283248        3.01462334254498        2.39028634082144
C            6.05258842832433        1.99899029872405        1.58995567887127
C            5.14258741801190        1.15100191520679        0.96204499224747
C            5.26669932169697        0.00388595173126        0.12870570601123
C            6.23177362016731       -0.83172414083165       -0.49320202995602
C            7.62748201355690       -0.77266490331130       -0.47276231540460
C            8.35889389429781       -1.71626289068411       -1.16570251232398
C            7.72505431696814       -2.72530303190230       -1.88258937896890
C            6.33895423619154       -2.80602996172077       -1.92171435025378
C            5.60681595826405       -1.86382376412820       -1.23199006650249
S            3.83387852935432       -1.79970268923292       -1.16454236454671
C            3.95158327187249       -0.41268024077916       -0.15457556490285
H           -1.12551169128135        2.11526067703336       -0.42879241757571
H           -3.75313297309137        3.33968344224935       -0.92462773489696
H           -5.13154604570425        5.30204759285186       -1.52716007168925
H           -7.58935636213309        5.09762306731948       -1.61986106156342
H           -8.66654353242878        2.93680136678174       -1.10815702133855
H           -7.27614082861377        0.97917513314413       -0.50595289649189
H           -7.08559915152145       -1.85242848208154        0.16257776843667
H           -8.19977177041095       -4.00936795231273        0.64449360210698
H           -6.84987325525985       -5.97271366086557        1.28812166400202
H           -4.39477817739556       -5.78123071822200        1.44856919929026
H           -3.29273858839635       -3.61906156576605        0.96541974664752
H           -0.83047659336705       -2.00690527447031        0.69110297766909
H            1.62148017828959       -1.79346973630450        0.85100768229334
H            2.21272937819628        2.48955229985814        2.14067826286634
H            3.84744603152324        3.97493244553665        3.23263481030578
H            6.25498299830026        3.68293019846291        2.88237166689918
H            7.11335303453489        1.85984097115340        1.45688813019681
H            8.11799826602645        0.00932300025655        0.08406192114937
H            9.43719824638078       -1.67185944023209       -1.15103589594414
H            8.31257599213046       -3.45545706848926       -2.41742800134939
H            5.84367762996354       -3.58601141485169       -2.47854705278532
