105
 energy: -141.094026288000 gnorm: 0.000101858376 xtb: 6.7.1 (edcfbbe)
C            1.37990084170640        4.56624921782254       -2.86557332605540
S           -0.35227877286279        4.02332145715847       -2.75212106414802
C           -0.16820424616697        2.55074062204410       -1.80267788891432
N           -1.27686625514830        1.88548057193059       -1.58656723422801
C           -1.18043032060960        0.76146464485542       -0.79550996547140
N           -2.36975232309410        0.09528917303266       -0.52110116118855
C           -3.50908499659488        0.66632517461068       -0.01972009718202
C           -3.72651270494742        2.00057564328424        0.29503518672317
C           -4.95675943984391        2.36028390921017        0.79562567536499
C           -5.97559156186708        1.41466045362853        0.99177921196936
C           -7.31182543176635        1.88579975621978        1.54535423165986
C           -7.08617081175418        2.52055270746514        2.92671394197640
C           -7.90822073327000        2.92834243832472        0.58649855280325
C           -8.33013380269681        0.75260668266799        1.70582153908427
C           -5.73716709292527        0.08192005581103        0.67499133346499
C           -4.50444212188671       -0.33052126567879        0.17102009911456
C           -3.91890240759826       -1.58659141833718       -0.26303149432332
C           -4.32550363037780       -2.93348276115879       -0.35163987483848
C           -5.68457975721783       -3.41985859781853        0.12807991558072
C           -5.82611343499855       -3.10053895735338        1.62616772503234
C           -5.87967229403935       -4.93718787907513       -0.00651531552086
C           -6.77371319382470       -2.76062221547500       -0.73627124632766
C           -3.42487590306506       -3.83076832989218       -0.91868610310977
C           -2.17732114819823       -3.46209820745190       -1.40992105996896
C           -1.75027686553790       -2.15516684058966       -1.31002862436931
C           -2.60888159451132       -1.24929571141738       -0.70951254503693
C            0.03719644675802        0.36997094046118       -0.23111121756553
C            0.11171997234310       -0.66740590839976        0.84813394952612
C            1.15772759597574        1.10436750140750       -0.62882908001739
N            2.44274812498858        0.79534041501494       -0.19413950622906
C            3.07191355865149       -0.41474802737074       -0.32632339108965
C            2.61470156739559       -1.55245681643252       -0.97684607143013
C            3.41688754420564       -2.67022402319685       -0.98876329485735
C            4.67278017409371       -2.67836494978508       -0.36079336514293
C            5.49276065018427       -3.95946493073063       -0.38643769836306
C            4.68438229694898       -5.08454604532727        0.27890697200785
C            6.82648333119445       -3.83366414580925        0.35642484750613
C            5.79426625673702       -4.33072639113613       -1.84698862892613
C            5.13588918981059       -1.51678534497087        0.24310644460283
C            4.36558316129819       -0.35333722722286        0.26003062521007
C            4.53670831912472        1.00683142366886        0.73636281810453
C            5.55349976600005        1.75557049116429        1.36312576267025
C            6.91629162889006        1.17346090774728        1.70744988330044
C            6.72539214658736        0.04564777885404        2.73674245322676
C            7.87701518140949        2.18688865869500        2.34638410882252
C            7.59320310259132        0.69876854801605        0.40999834939637
C            5.26774062341032        3.08512135343688        1.66272313890015
C            4.05372225755254        3.69706248828539        1.37122931393544
C            3.05137752152940        2.98881472506255        0.74318214168566
C            3.31275541030627        1.66631318145180        0.42714106963328
N            1.04244177076257        2.22298666344565       -1.42768909668172
H            1.40003570553127        5.38338123599061       -3.57851341583375
H            1.71818919077887        4.89924789169394       -1.88982348206641
H            1.98457180014978        3.73302546034244       -3.20728037034897
H           -2.94773695721923        2.73002467059624        0.13312695226686
H           -5.12841976942369        3.39685277156247        1.03865168612161
H           -8.03429969982410        2.85599079051072        3.34145042366846
H           -6.41951563084935        3.37632513621754        2.86810230306966
H           -6.64840221233179        1.79322776999914        3.60780480238287
H           -8.05085331278545        2.49322539263541       -0.40074735455820
H           -8.87298409832357        3.26710083012181        0.95813635323847
H           -7.26004410917400        3.79422502097007        0.48498157693401
H           -9.25766610161372        1.15861817584360        2.10444395264757
H           -8.55373899892118        0.28790017294879        0.74862237115246
H           -7.97098948143030       -0.00298740265817        2.40031382590510
H           -6.52546007749374       -0.63070499922118        0.82276444833952
H           -5.20657377697996       -3.78880957020009        2.19905108308418
H           -5.50190302628218       -2.09535556467742        1.86684474842282
H           -6.85851221003198       -3.22815899202378        1.94468673966898
H           -6.86442217688214       -5.19448558936033        0.37911147609212
H           -5.83596678229497       -5.25865259083825       -1.04459338440980
H           -5.14029738850260       -5.48855332446652        0.57015318787292
H           -6.80829440248629       -3.25148608245252       -1.70749190365895
H           -6.57629058488414       -1.70994370447259       -0.91402749418980
H           -7.74923655009168       -2.86836380524838       -0.26689808372883
H           -3.69605920790174       -4.86826166961272       -1.00926906494594
H           -1.54637331157243       -4.20503904579614       -1.87422881185219
H           -0.79889715958551       -1.83312214132219       -1.70525121954816
H           -0.80408767829175       -0.65653562368987        1.43776288682421
H            0.95309043474782       -0.46075653751551        1.50770918982786
H            0.23802791751267       -1.67365786309552        0.45111991931815
H            1.65928553286654       -1.54700019221330       -1.47992542906621
H            3.06261322196195       -3.55160296039357       -1.49949950975606
H            3.74952524518580       -5.26773484112198       -0.24332653260717
H            5.26037591809733       -6.00745395236525        0.27808155450766
H            4.45333811982284       -4.82243260677438        1.30966043154857
H            6.67027837193271       -3.58328382494137        1.40301559797732
H            7.35124421101636       -4.78606424914366        0.31489429979610
H            7.46331113698468       -3.08233490854337       -0.10398772306379
H            6.39588081496809       -5.23637191199601       -1.88465935738023
H            6.34616473112071       -3.52841591775832       -2.33302073764935
H            4.88176921251468       -4.50543430989114       -2.41030357840355
H            6.10869603121473       -1.52470465506996        0.69516945699298
H            5.88359092333978       -0.59234671674167        2.49505965921088
H            7.62577905812457       -0.56089023299973        2.80806467407340
H            6.53123263218085        0.48126999575774        3.71553178994676
H            8.82325970886799        1.68746011273505        2.54654363659071
H            8.07596527046527        3.02416617172086        1.68120599724505
H            7.49413146347651        2.56451045758742        3.29177751920269
H            6.91679272254757        0.14553057073804       -0.23036069968820
H            8.45681938051213        0.07760857531359        0.63831621926655
H            7.93761659059525        1.56515560292978       -0.15254597706803
H            6.01352360211230        3.69088757450583        2.14779381311145
H            3.90024385648267        4.73111316722810        1.64142385120246
H            2.09966572151413        3.43292639466575        0.49678365419890
