105
 energy: -141.193943458251 gnorm: 0.000051106188 xtb: 6.7.1 (edcfbbe)
C            1.69614838211343        3.38621800815944        4.07983380388462
S           -0.08610909451128        3.15148708491025        3.79934864428758
C           -0.06141651168988        1.85275526138365        2.63377505874927
N           -1.24267927920835        1.40428200717786        2.24855873164022
C           -1.25621346704058        0.45473735921093        1.31930739476283
N           -2.50700792118428        0.01947303943673        0.91216404399087
C           -3.56504831858760        0.83354318886796        0.55163051579516
C           -3.60456871856963        2.21609768791726        0.51651503049584
C           -4.75915843601281        2.82315992473599        0.07260760274658
C           -5.86792322113161        2.08025349389113       -0.34622625418851
C           -7.11124828416302        2.82216597104264       -0.82102651448515
C           -7.63827515060454        3.69676708557152        0.32658447969806
C           -6.74165787903596        3.70621823462114       -2.02176160596183
C           -8.23945261260329        1.88171110136748       -1.25652921549254
C           -5.80167175184481        0.69592623032876       -0.31394247675222
C           -4.65390212529996        0.03931938790863        0.13450119720926
C           -4.25087500033110       -1.35069677859182        0.30657734928744
C           -4.84738341141559       -2.61610516195630        0.12956730709653
C           -6.25102432856317       -2.79856028461810       -0.43009856334362
C           -7.25581271703517       -2.15458430792439        0.54101436329940
C           -6.67044660705557       -4.26913203485584       -0.57370397397857
C           -6.30305597383055       -2.19914251798459       -1.84616641071460
C           -4.09851993042704       -3.72478613188831        0.50199833024485
C           -2.82927249386264       -3.63748859263998        1.05853955265565
C           -2.22456799532903       -2.41223991408311        1.22808074173393
C           -2.92693502813599       -1.29418736578851        0.81047074988536
C           -0.08049216264320       -0.04340411724478        0.73294736544298
C           -0.08606395044015       -0.88219799629789       -0.50510142491594
C            1.10150572934765        0.44907285284544        1.29894930591666
N            2.34760170189736        0.01264686899950        0.87085843175452
C            3.38787760276501        0.82525927949064        0.46351952801231
C            3.40272363574848        2.20316152762585        0.36090279817423
C            4.54261040826809        2.81656413716960       -0.12019671598720
C            5.65734839817767        2.07455254813306       -0.51139707346116
C            6.92545125320041        2.72791518929131       -1.04795887298736
C            7.18154719425596        2.23015306324158       -2.47861706583368
C            8.10958325056463        2.34857753820593       -0.14596920466568
C            6.83204296758829        4.25643237310394       -1.08837748059173
C            5.61299537830392        0.68840002315418       -0.41660875702172
C            4.48671543493284        0.02932658560465        0.07089503794229
C            4.10351369698043       -1.35767198622260        0.30265688991206
C            4.71566987425981       -2.62113688240997        0.17277713952245
C            6.12248373910264       -2.80609920002659       -0.37801975622516
C            6.56821310118778       -4.27412277961534       -0.44988174663014
C            7.11650251846634       -2.09786004707724        0.55877724047388
C            6.16193353646396       -2.27487119095535       -1.82132837962304
C            3.97884303250156       -3.72491777954466        0.58193167291104
C            2.70642712515991       -3.63350467705583        1.13075517000978
C            2.08866581403026       -2.40991326353425        1.26090014455144
C            2.78118094602355       -1.29848769219026        0.81058617057712
N            1.11053319407963        1.39688728890052        2.23404906826564
H            2.16340312470292        3.73051069194525        3.16366953324385
H            1.78377686459736        4.13361370398755        4.86087729304474
H            2.13152808241752        2.44337954245443        4.39278756568989
H           -2.75797251602395        2.79797320072433        0.84714939045376
H           -4.79307646560191        3.90142543017868        0.05522398996150
H           -8.53822118763729        4.22231331598959        0.01394394075229
H           -6.90286917050542        4.43511356485916        0.63411583951148
H           -7.88028390890292        3.07901363426912        1.18934412920848
H           -6.34825535518128        3.09500211884697       -2.83188592680305
H           -7.62224723431003        4.23338227842288       -2.38286200477520
H           -5.98963400081914        4.44414728287033       -1.75654055291977
H           -9.09160665337055        2.47256007201632       -1.58674344335491
H           -7.92705297670344        1.25261276305551       -2.08658341248370
H           -8.56745367885928        1.25466687660573       -0.43105605596717
H           -6.65252231062081        0.13087350566863       -0.64059342948172
H           -7.38396215481861       -2.80263372251355        1.40658021013750
H           -6.91667213045741       -1.19256286267076        0.90697496406736
H           -8.22501677324386       -2.03393302790333        0.06160768591323
H           -7.67425309415439       -4.30240146260386       -0.99327554031182
H           -6.00909589543359       -4.81067360589613       -1.24637082729270
H           -6.69556832256982       -4.77658399192759        0.38795078908067
H           -7.33458445622676       -2.08818969623107       -2.17383398226403
H           -5.79803880696280       -2.87101023983530       -2.53851455191540
H           -5.80565288637402       -1.23856797497162       -1.90750147901537
H           -4.51178186017601       -4.71129457454595        0.38425952691755
H           -2.31864282167437       -4.53844349990266        1.36523321312425
H           -1.25694380166026       -2.31892640373940        1.69685333917243
H            0.79127570721843       -0.65157433317140       -1.10828378166086
H           -0.98191566118486       -0.67285895282744       -1.08789904907434
H           -0.07018951802986       -1.95047400127197       -0.29314230068441
H            2.54155816903666        2.78295568109176        0.65717134579390
H            4.54683196542839        3.89141564356706       -0.18899491787198
H            6.32989761684582        2.46179360835508       -3.11561552517829
H            8.06305674804653        2.71649555869535       -2.89104140052243
H            7.34380944112403        1.15653867523645       -2.50359426916699
H            8.27844747258617        1.27576942889405       -0.14047573400996
H            9.01759130675215        2.83333114019566       -0.49846825179714
H            7.92178928706762        2.66974558634712        0.87681582594013
H            7.76380044321629        4.66483380514081       -1.47480602173636
H            6.67389330101927        4.66650729376364       -0.09339637156501
H            6.02687277223355        4.58348869421886       -1.74262941133586
H            6.47551114439727        0.13152815483381       -0.73257285275037
H            5.92284622879518       -4.85784117676560       -1.10245224713287
H            7.57634099035875       -4.30942601146691       -0.85886412502002
H            6.59282670392694       -4.73594270349535        0.53455254743132
H            8.08379815250727       -1.98560963989292        0.07311515941905
H            6.76189050372034       -1.12458645778897        0.87705828536967
H            7.25603712550832       -2.69984515593079        1.45521423918723
H            5.65704642259266       -1.32185707059365       -1.92522867378521
H            5.65706763267182       -2.98215927350034       -2.47747609494935
H            7.19068593920431       -2.17338857023054       -2.16123416216752
H            4.40336475391550       -4.71013083483388        0.49827082619154
H            2.20360606618062       -4.52994424806158        1.46257072488377
H            1.11762213058751       -2.31208939939247        1.72193066440209
