105
 energy: -141.094154828399 gnorm: 0.000066235563 xtb: 6.7.1 (edcfbbe)
C            1.33022691629232        4.58647435247951       -2.99475425743006
S           -0.38920345646916        4.01878207282007       -2.79881718838705
C           -0.17234695040648        2.54515786762539       -1.85068320081396
N           -1.28006638139920        1.88787289545225       -1.61686843223466
C           -1.17979617340857        0.76743223018325       -0.82087613778618
N           -2.36601741978370        0.10201932176116       -0.53448842739400
C           -3.50258631413856        0.67265210328073       -0.02687266329751
C           -3.72231300668122        2.00889193102002        0.27807322480471
C           -4.94893113146465        2.36788098052325        0.78778940817166
C           -5.96187805441445        1.41978841469473        1.00225148681819
C           -7.29450043688100        1.89054420614169        1.56460539853280
C           -7.05789089110157        2.53820703750436        2.93813615115506
C           -7.90421303927028        2.92245943419243        0.60261753951561
C           -8.30679579184084        0.75495386217695        1.74482479709987
C           -5.72107014845277        0.08509878826146        0.69512844491449
C           -4.49164048421184       -0.32675770760167        0.18301498514563
C           -3.90483241314652       -1.58435350157735       -0.24511823583087
C           -4.30504959232463       -2.93416311843169       -0.31544670807495
C           -5.65539957497223       -3.42325247154952        0.18571001029027
C           -5.78210313572595       -3.08762549318077        1.68157994079390
C           -5.84242034148087       -4.94320779024180        0.07063208220430
C           -6.75850634383770       -2.78029862072057       -0.67321193155432
C           -3.40637284912802       -3.83219495916166       -0.88461492082250
C           -2.16675599210202       -3.46191344843452       -1.39442159715376
C           -1.74499272281041       -2.15217345610169       -1.31086651090449
C           -2.60138207599511       -1.24513893640895       -0.70883662687980
C            0.04267261852974        0.37984891035952       -0.26137058868843
C            0.12004607258635       -0.64355968503782        0.83073094102563
C            1.16099312780729        1.10610568344432       -0.67578769859614
N            2.44775648233063        0.80363017225060       -0.24136216391500
C            3.07035711536790       -0.41235217195464       -0.34958419635018
C            2.60832309694246       -1.55875771675831       -0.98134206272754
C            3.40269976138350       -2.68183576045252       -0.96835598138951
C            4.65578890657085       -2.68668904917551       -0.33487707629285
C            5.46633820014973       -3.97405206794181       -0.33154784557988
C            6.79744122800057       -3.84334872261784        0.41513008938502
C            5.77194919111290       -4.37638041638000       -1.78295343745913
C            4.64639294022624       -5.07971910349191        0.35200037111061
C            5.12447515563456       -1.51696582915673        0.24852786985874
C            4.36165545091420       -0.34854632345139        0.24079828467786
C            4.53894086027544        1.01893840684123        0.69413041692630
C            5.55671067277207        1.77048073275710        1.31562825860673
C            6.91106672901428        1.18291968017396        1.68293181801478
C            6.69973685794416        0.07426064206936        2.72898894155302
C            7.87365478390638        2.19867960161085        2.31531000014187
C            7.59693481267298        0.68108947229368        0.40044856252691
C            5.27933003863233        3.10725753427769        1.58938298499421
C            4.07192423276524        3.72264156615381        1.27882320321220
C            3.06778862827193        3.01107221710695        0.65754374428988
C            3.32108470173580        1.68088310183748        0.36717804861975
N            1.04250062726508        2.21479004655226       -1.48904497625739
H            1.56738349120331        4.60878497921766       -4.05350153290158
H            1.41606572340836        5.57963493313293       -2.56577299238794
H            1.95529284998538        3.87220630409172       -2.46637579491857
H           -2.94808106143231        2.73979107142074        0.10162147147662
H           -5.12252071391330        3.40578515984227        1.02358359384625
H           -8.00359072818699        2.87121391743418        3.36029853629018
H           -6.39733710428913        3.39759928904328        2.86516626726404
H           -6.60826586893946        1.81935705286812        3.62048481820899
H           -8.05505134192089        2.47814842083676       -0.37929998556202
H           -8.86645807541750        3.26105380239541        0.98085993948250
H           -7.26023513943743        3.78970239073020        0.48702573639516
H           -9.23217933689176        1.16100269335574        2.14836726875309
H           -8.53748287637703        0.28069845179328        0.79401683710798
H           -7.93819949400989        0.00716781912385        2.44278895589401
H           -6.50486865021394       -0.62946824922785        0.85691706517233
H           -6.81013444249299       -3.21793888818779        2.01288560693988
H           -5.15207490919033       -3.76548609924214        2.25541193272602
H           -5.46173442377611       -2.07771655839020        1.90713502301343
H           -6.82071560546507       -5.20237922803567        0.47111952543802
H           -5.80926190935096       -5.27613072271992       -0.96422306795747
H           -5.09253109775195       -5.48329317023829        0.64439222353602
H           -6.80276435370056       -3.28341379594487       -1.63773371598990
H           -6.56841288327427       -1.73098226311191       -0.86642890804447
H           -7.72755840188487       -2.88677020268516       -0.19036542704401
H           -3.67306728497591       -4.87190264374319       -0.96201777371891
H           -1.53767625351344       -4.20594792055633       -1.85949029056005
H           -0.79984661565402       -1.82874722748358       -1.71984161694780
H           -0.78575254393652       -0.60976053004260        1.43493893635213
H            0.97519550108628       -0.44156512539617        1.47363131548984
H            0.22311694586023       -1.65699149861720        0.44552094650027
H            1.65509385968865       -1.55611048433554       -1.48846684850116
H            3.04443229512089       -3.57036473692397       -1.46371107432924
H            6.63815719750888       -3.57155796629059        1.45589999043230
H            7.31544856271412       -4.80010570415967        0.39457816398075
H            7.44184341675502       -3.10568186227471       -0.05670685730210
H            6.33391211135002       -3.58882118835941       -2.28138307205863
H            6.36515988357965       -5.28816486449633       -1.79978492592165
H            4.86083935612457       -4.55343883153547       -2.34777228752522
H            5.21637163678149       -6.00609848780540        0.37429612787004
H            3.71374054060140       -5.26790927186037       -0.17238192154770
H            4.41042794180979       -4.79459720332772        1.37550476443757
H            6.09554353079202       -1.52267599748075        0.70429456216947
H            5.85544395038937       -0.56109876980009        2.48901572913774
H            7.59431110874063       -0.53810553827792        2.82063824041269
H            6.49840421810743        0.52812731379292        3.69799457872671
H            8.81350057060305        1.69475052044286        2.53350510142302
H            8.08657578835648        3.02356161796862        1.63904009168554
H            7.48395866244120        2.59460817685582        3.25037704026727
H            6.92081412751620        0.12778711416616       -0.24023603310893
H            8.44958386890919        0.05207759549935        0.64766321498548
H            7.95925420671310        1.53479806935533       -0.17009335896638
H            6.02637849738312        3.71597689729061        2.06873118627493
H            3.92443862001843        4.76271147034043        1.52811164442456
H            2.12164880854722        3.45966326484024        0.39801812335593
