  64
       -105.27979091
 O          6.2735423495       -1.9243948071       -0.9205922227
 S          5.7676400848       -1.1754028200        0.1962990023
 O          6.2717961107       -1.5055540643        1.5008215144
 C          5.8762830898        0.5923382327       -0.1075261583
 C          7.0079792960        1.3617033420       -0.2305982721
 C          6.8579945642        2.7240069199       -0.4605763692
 C          5.5913635421        3.2788991447       -0.5592320169
 C          4.4558672465        2.4943018205       -0.4329095513
 C          4.5953456573        1.1301887859       -0.2047810275
 C          3.5232124367        0.1484969680       -0.0402367521
 C          2.1576374028        0.3906436933       -0.0917894022
 C          1.2691977323       -0.6654642094        0.0973728352
 N         -0.1236979990       -0.4229783330        0.0553957681
 C         -0.7149453344        0.3168653627        1.0754298120
 C          0.0500528598        0.7907548148        2.1446752052
 C         -0.5266667609        1.5340970067        3.1544881016
 C         -1.8817824171        1.8145255837        3.1289293539
 C         -2.6508347815        1.3208286752        2.0925877202
 C         -2.0884508351        0.5708554977        1.0699036884
 C         -2.9980967407        0.0258711206       -0.0030339519
 C         -4.1011156518       -0.8110542650        0.6168061155
 C         -3.9801354437       -1.9715189918        1.3480653030
 C         -5.1349275798       -2.5767133689        1.8257728670
 C         -6.3816456766       -2.0253546233        1.5726823014
 C         -6.5075795195       -0.8572576196        0.8376810746
 C         -5.3591955831       -0.2492125913        0.3587293852
 C         -5.1720389852        0.9616729514       -0.4267025872
 C         -6.0859013519        1.8703457349       -0.9339145076
 C         -5.6122584428        2.9511828259       -1.6605679328
 C         -4.2536637542        3.1230584417       -1.8776848935
 C         -3.3328873596        2.2152989021       -1.3713929916
 C         -3.7993535270        1.1402722728       -0.6484190202
 C         -2.2541168683       -0.7624390991       -1.0521120865
 C         -2.9743753890       -1.2997631448       -2.1092281503
 C         -2.3489233703       -2.0014487288       -3.1218801115
 C         -0.9731258175       -2.1504778277       -3.0881834080
 C         -0.2409535291       -1.6240682993       -2.0433338087
 C         -0.8704871471       -0.9433688288       -0.9979016913
 C          1.7415072772       -1.9559180290        0.3290839096
 C          3.1057762802       -2.2032750860        0.3705991820
 C          3.9715462059       -1.1507316037        0.1889247984
 H          7.9823139032        0.9069871226       -0.1471781791
 H          7.7302701286        3.3513247733       -0.5607282143
 H          5.4865591095        4.3388368825       -0.7363218150
 H          3.4773076953        2.9418977734       -0.5107250667
 H          1.7698731145        1.3814793440       -0.2725595878
 H          1.1046353175        0.5666147968        2.1931998034
 H          0.0890550550        1.8894971922        3.9671586895
 H         -2.3367488046        2.3983167303        3.9137924770
 H         -3.7138290834        1.5125324772        2.0706973845
 H         -3.0085753135       -2.4008017068        1.5462234600
 H         -5.0613744930       -3.4875644662        2.4015040414
 H         -7.2664679746       -2.5132845682        1.9548396260
 H         -7.4807466825       -0.4311069092        0.6440767394
 H         -7.1451999689        1.7402149766       -0.7684961913
 H         -6.3106108418        3.6696392689       -2.0646916905
 H         -3.9079072676        3.9726710691       -2.4479999114
 H         -2.2741484168        2.3484437703       -1.5417757657
 H         -4.0450606900       -1.1580942222       -2.1325253502
 H         -2.9265840234       -2.4160816803       -3.9331718982
 H         -0.4615650219       -2.6758484385       -3.8805759901
 H          0.8328171687       -1.7357619933       -2.0426870262
 H          1.0338064821       -2.7580745543        0.4726781648
 H          3.4897413848       -3.1949180256        0.5489760523
