  64
  -104.861450853200       0.237262515041419      !
 O          6.2721368873       -1.5940655107       -1.4220427646
 S          5.7556272517       -1.1995407079       -0.1405280198
 O          6.2364719250       -1.9054917169        1.0150188803
 C          5.8836746887        0.5781294047        0.0869663426
 C          7.0234914225        1.3364654854        0.2029642987
 C          6.8881991537        2.7091595635        0.3729351164
 C          5.6278725452        3.2848747184        0.4200681494
 C          4.4840575300        2.5110308963        0.3020675930
 C          4.6088023035        1.1367125367        0.1345285443
 C          3.5259944846        0.1621814322        0.0002709106
 C          2.1626881347        0.4220390530        0.0287035694
 C          1.2655273492       -0.6347238878       -0.1003686342
 N         -0.1282587673       -0.3803000194       -0.0583681091
 C         -0.8279732716       -0.6768728612        1.1057569306
 C         -0.1542436825       -1.1621524365        2.2291490295
 C         -0.8385255410       -1.4543141237        3.3917231289
 C         -2.2070073907       -1.2604537079        3.4634332113
 C         -2.8769182059       -0.7654644230        2.3604964847
 C         -2.2064019446       -0.4678001139        1.1834287509
 C         -2.9977743476        0.0634025340        0.0134082552
 C         -4.0333929955       -0.9565978725       -0.4237978957
 C         -3.8237844044       -2.2259407560       -0.9143321981
 C         -4.9286138126       -2.9969015942       -1.2504460885
 C         -6.2137421195       -2.4999539380       -1.0961864824
 C         -6.4286877476       -1.2226216750       -0.6034436187
 C         -5.3304722170       -0.4495195846       -0.2658241318
 C         -5.2367187863        0.9009314412        0.2684055631
 C         -6.2176395587        1.8205966273        0.5997917089
 C         -5.8287768662        3.0534442541        1.0995654580
 C         -4.4877334779        3.3635773703        1.2654608068
 C         -3.4999353412        2.4452181448        0.9349821317
 C         -3.8817466773        1.2189959464        0.4382063906
 C         -2.1221901001        0.4500180407       -1.1534462037
 C         -2.7141760461        1.0336176757       -2.2637158172
 C         -1.9723194481        1.3690523816       -3.3806255892
 C         -0.6143084487        1.1020361716       -3.3944514788
 C         -0.0076656175        0.5220107646       -2.2986544423
 C         -0.7477601062        0.2007397119       -1.1581972784
 C          1.7217335590       -1.9406747806       -0.2596443142
 C          3.0837620676       -2.2043290969       -0.2875994632
 C          3.9594708458       -1.1525964213       -0.1573929117
 H          7.9926733340        0.8653038931        0.1621616813
 H          7.7671488427        3.3277530372        0.4685769910
 H          5.5343682600        4.3525025970        0.5516384203
 H          3.5105909557        2.9746029161        0.3407198332
 H          1.7835849198        1.4249512172        0.1518151686
 H          0.9146473659       -1.3076181024        2.1925339612
 H         -0.2953609316       -1.8315701601        4.2450487276
 H         -2.7465192408       -1.4876103799        4.3696054120
 H         -3.9439955657       -0.6035087339        2.4056253081
 H         -2.8224648798       -2.6135792273       -1.0347222986
 H         -4.7854757535       -3.9956183068       -1.6359741066
 H         -7.0585707840       -3.1175301817       -1.3642432626
 H         -7.4316970608       -0.8400694471       -0.4855381952
 H         -7.2635090297        1.5835117580        0.4725528324
 H         -6.5802649071        3.7830448182        1.3641202286
 H         -4.2082716623        4.3307523888        1.6568989257
 H         -2.4549951468        2.6868687595        1.0653486230
 H         -3.7781600005        1.2200238423       -2.2469966622
 H         -2.4509049727        1.8224626080       -4.2346640914
 H         -0.0203534502        1.3410247163       -4.2638539758
 H          1.0497986909        0.3073404074       -2.3300088739
 H          1.0044332562       -2.7415173415       -0.3541911435
 H          3.4582577018       -3.2081557667       -0.4092308751
  64
  -104.861114532900       0.166213778148203      !
 O          6.2788459350       -1.3900298261       -1.5842150080
 S          5.7618654978       -1.1503660121       -0.2654548990
 O          6.2454203332       -1.9829423250        0.8009938046
 C          5.8801088706        0.5882203397        0.1719842552
 C          7.0160141291        1.3343444224        0.3741755846
 C          6.8733592791        2.6744327167        0.7136120646
 C          5.6097118995        3.2303631960        0.8417348606
 C          4.4699290063        2.4692310799        0.6351457126
 C          4.6020658125        1.1277445817        0.2952922291
 C          3.5242975100        0.1712449604        0.0422595500
 C          2.1589641951        0.4188961266        0.0951665290
 C          1.2701662223       -0.6184601921       -0.1696881961
 N         -0.1276765384       -0.3762567587       -0.1078297220
 C         -0.8021234345       -0.6433818240        1.0759894981
 C         -0.1033851423       -1.1023762333        2.1950064283
 C         -0.7629122748       -1.3666259861        3.3784883954
 C         -2.1308631847       -1.1763462043        3.4722476385
 C         -2.8267046271       -0.7181696950        2.3690055253
 C         -2.1815721955       -0.4475923406        1.1715073864
 C         -2.9995130707        0.0396779233       -0.0000669933
 C         -4.0644461662       -0.9802314779       -0.3587309729
 C         -3.8910717141       -2.2727684608       -0.8005634283
 C         -5.0181948305       -3.0371978726       -1.0712618480
 C         -6.2897725544       -2.5117186627       -0.8998166057
 C         -6.4685062800       -1.2109073538       -0.4565935416
 C         -5.3477869533       -0.4436602768       -0.1858225743
 C         -5.2156666223        0.9277480646        0.2828771231
 C         -6.1708539087        1.8795215627        0.5986264612
 C         -5.7468327018        3.1274281757        1.0270077320
 C         -4.3964110903        3.4210635717        1.1382784562
 C         -3.4343555476        2.4707041471        0.8228866907
 C         -3.8512375885        1.2293396905        0.3968847678
 C         -2.1532392177        0.3618799125       -1.2079046902
 C         -2.7722868582        0.8756073452       -2.3375761627
 C         -2.0524631178        1.1666231782       -3.4814419682
 C         -0.6879147462        0.9347572883       -3.4996778537
 C         -0.0541389682        0.4239945154       -2.3848305382
 C         -0.7751418967        0.1352817345       -1.2239452855
 C          1.7325428549       -1.8921377555       -0.4877250041
 C          3.0964591856       -2.1433283152       -0.5425840534
 C          3.9648469603       -1.1113374581       -0.2771698012
 H          7.9877761050        0.8787180490        0.2691543246
 H          7.7490714543        3.2830777491        0.8782764851
 H          5.5106329815        4.2723909042        1.1066901483
 H          3.4937658356        2.9170430991        0.7385706453
 H          1.7726180462        1.3966807555        0.3386404953
 H          0.9641165172       -1.2525738332        2.1349700428
 H         -0.2020014957       -1.7225665051        4.2296143300
 H         -2.6510846154       -1.3824926042        4.3948154933
 H         -3.8945573731       -0.5657791198        2.4301351785
 H         -2.9003196615       -2.6828839275       -0.9337944916
 H         -4.9033591608       -4.0532027590       -1.4192983364
 H         -7.1524411313       -3.1252367797       -1.1155259449
 H         -7.4610252148       -0.8058064990       -0.3250734446
 H         -7.2238460547        1.6552308783        0.5141402642
 H         -6.4777630002        3.8822959346        1.2779164909
 H         -4.0895919832        4.4007117035        1.4742474172
 H         -2.3819531869        2.6993946273        0.9103636530
 H         -3.8390330975        1.0452923168       -2.3137510051
 H         -2.5524626438        1.5652429874       -4.3504534613
 H         -0.1100576692        1.1492978883       -4.3861598093
 H          1.0095781999        0.2414266633       -2.4130610061
 H          1.0193940129       -2.6771577536       -0.6872560928
 H          3.4777656704       -3.1217900974       -0.7873212940
  64
  -104.860995227100       0.146500083420454      !
 O          6.3029144732       -0.7131234327       -1.9164663154
 S          5.7817040554       -0.9484742142       -0.5983912732
 O          6.2838557471       -2.0863917875        0.1212887961
 C          5.8683610287        0.5385346342        0.4067538476
 C          6.9903356860        1.1861210620        0.8645861385
 C          6.8234105984        2.3277450729        1.6392389743
 C          5.5500239208        2.7887024004        1.9358821532
 C          4.4244358381        2.1278473658        1.4698089236
 C          4.5808886368        0.9861317327        0.6924356822
 C          3.5210863287        0.1569437521        0.1183889531
 C          2.1526856056        0.3589277786        0.2313924906
 C          1.2774261749       -0.5398727966       -0.3740410379
 N         -0.1183435100       -0.3444400617       -0.2542369245
 C         -0.7242988633       -0.5199005960        0.9865061057
 C          0.0291451240       -0.9129690353        2.0959647669
 C         -0.5622807485       -1.0787407836        3.3319341782
 C         -1.9208571787       -0.8670446982        3.4903220841
 C         -2.6782519263       -0.5110692295        2.3908600245
 C         -2.1010098410       -0.3412665764        1.1408293317
 C         -2.9981260561        0.0021359715       -0.0223198469
 C         -4.0929419527       -1.0378035523       -0.1679236514
 C         -3.9601298479       -2.3807899034       -0.4414253841
 C         -5.1090977961       -3.1554154396       -0.5299553856
 C         -6.3617768490       -2.5900167325       -0.3469887057
 C         -6.4996251735       -1.2389621546       -0.0709703851
 C         -5.3570965610       -0.4614577155        0.0185525705
 C         -5.1822084538        0.9573291810        0.2917423671
 C         -6.1055712004        1.9585841542        0.5427091015
 C         -5.6427855655        3.2445989374        0.7719841690
 C         -4.2855523430        3.5273620358        0.7514040905
 C         -3.3552839063        2.5274459439        0.5004927807
 C         -3.8109527309        1.2482163709        0.2726728427
 C         -2.2386694484        0.1636576732       -1.3156258379
 C         -2.9465956124        0.5028189818       -2.4596511838
 C         -2.3069810243        0.7009291757       -3.6682298576
 C         -0.9295073786        0.5785842087       -3.7295659067
 C         -0.2094642908        0.2401063950       -2.6017961349
 C         -0.8530408296        0.0041377500       -1.3841259437
 C          1.7656823624       -1.6288255929       -1.0936416851
 C          3.1328950371       -1.8276331231       -1.2175126343
 C          3.9854979146       -0.9367281145       -0.6094275028
 H          7.9702001812        0.8062039941        0.6225483903
 H          7.6877635730        2.8553176172        2.0120444027
 H          5.4320289356        3.6757385439        2.5400814888
 H          3.4404140645        2.4987198824        1.7109124538
 H          1.7526935553        1.1968685143        0.7815342660
 H          1.0863601322       -1.1017925211        1.9892892685
 H          0.0447193203       -1.3807230097        4.1722994455
 H         -2.3873332344       -0.9915710884        4.4550551593
 H         -3.7435769649       -0.3641437237        2.4942131966
 H         -2.9839340224       -2.8217626700       -0.5830732587
 H         -5.0262642604       -4.2108821342       -0.7436252833
 H         -7.2418935762       -3.2121932635       -0.4199356845
 H         -7.4774084330       -0.8034115195        0.0717774184
 H         -7.1638409829        1.7435915880        0.5586482820
 H         -6.3486370088        4.0385447879        0.9684923667
 H         -3.9483320697        4.5374811209        0.9319319432
 H         -2.2975896230        2.7480462244        0.4830481843
 H         -4.0189403044        0.6145512989       -2.3920301239
 H         -2.8751446583        0.9594352642       -4.5480999418
 H         -0.4071809942        0.7508451126       -4.6585955400
 H          0.8656778200        0.1657056145       -2.6649893024
 H          1.0679961716       -2.3116485651       -1.5539693774
 H          3.5291106121       -2.6645240758       -1.7699888604
  64
  -104.860955793800       0.140512700995682      !
 O          6.1536684048       -1.3763822645       -1.8457905228
 S          5.6855201332       -1.2877640419       -0.4901962640
 O          6.1473436834       -2.2809747391        0.4398259045
 C          5.9166151867        0.3684128351        0.1670640496
 C          7.0989217931        1.0219874729        0.4175244934
 C          7.0435067713        2.3128341584        0.9294258191
 C          5.8183313714        2.9123806984        1.1777071424
 C          4.6311106351        2.2444842855        0.9218486425
 C          4.6759445633        0.9537228419        0.4076606359
 C          3.5379033041        0.0995130513        0.0678398007
 C          2.1915735721        0.4148361494        0.1922591201
 C          1.2364178594       -0.5211472932       -0.1941342925
 N         -0.1442644593       -0.2107892375       -0.0824459247
 C         -0.7777981727       -0.3601870222        1.1441485955
 C         -0.0504725508       -0.7418224067        2.2732800993
 C         -0.6728182056       -0.8828800553        3.4975581486
 C         -2.0307613080       -0.6464166718        3.6209802659
 C         -2.7588553894       -0.2828964539        2.5029913538
 C         -2.1521992290       -0.1388007570        1.2646660801
 C         -3.0043141304        0.1861892002        0.0618563581
 C         -3.8894481613       -0.9998894349       -0.2813245757
 C         -3.5061552113       -2.2694897024       -0.6511505934
 C         -4.4937723728       -3.2034398283       -0.9339293633
 C         -5.8353346551       -2.8649146017       -0.8465954628
 C         -6.2247836257       -1.5884423076       -0.4731443375
 C         -5.2439119526       -0.6531264397       -0.1886886065
 C         -5.3370393271        0.7398073986        0.2219895239
 C         -6.4360529606        1.5488428034        0.4581921927
 C         -6.2214075302        2.8609094887        0.8495283043
 C         -4.9357132699        3.3572216688        1.0016135780
 C         -3.8300909232        2.5509770102        0.7651241076
 C         -4.0383599738        1.2460537678        0.3766036991
 C         -2.1771891592        0.5598185631       -1.1451323792
 C         -2.8061805004        1.0994851306       -2.2565683877
 C         -2.0972103732        1.4083123277       -3.4028676300
 C         -0.7342292659        1.1717633364       -3.4412117358
 C         -0.0903082137        0.6360407877       -2.3439091657
 C         -0.8017245234        0.3201182946       -1.1846118776
 C          1.6151897331       -1.7613832602       -0.6982588723
 C          2.9602290082       -2.0815459404       -0.8214359937
 C          3.8941529973       -1.1489877583       -0.4381350248
 H          8.0394101679        0.5342193066        0.2159780804
 H          7.9571926554        2.8492546644        1.1338579988
 H          5.7871103382        3.9154967794        1.5760354673
 H          3.6858347504        2.7253718517        1.1195891009
 H          1.8694873404        1.3696329009        0.5787203501
 H          1.0083720842       -0.9351387121        2.1886113236
 H         -0.0905868139       -1.1805185027        4.3567390667
 H         -2.5211973898       -0.7542545971        4.5759194672
 H         -3.8224905744       -0.1127194370        2.5845990230
 H         -2.4605906860       -2.5336266737       -0.7187866893
 H         -4.2141141295       -4.2049367068       -1.2261267705
 H         -6.5868564729       -3.6070778963       -1.0735692144
 H         -7.2713010401       -1.3303868763       -0.4067037384
 H         -7.4391920327        1.1664183458        0.3415060114
 H         -7.0667316510        3.5064671691        1.0387987151
 H         -4.7928997675        4.3831874383        1.3075475841
 H         -2.8282764441        2.9379512644        0.8834982346
 H         -3.8714983870        1.2739537559       -2.2190407372
 H         -2.6052647777        1.8255041352       -4.2582419361
 H         -0.1647989435        1.4051647591       -4.3282970399
 H          0.9741726417        0.4595160128       -2.3837880748
 H          0.8530400076       -2.4661902125       -0.9931615097
 H          3.2767370403       -3.0370172726       -1.2083266378
  64
  -104.860784125900       0.117171631641065      !
 O          6.1077354039       -1.1526449128       -2.0483345957
 S          5.6435894618       -1.2822250502       -0.6946535162
 O          6.0718365258       -2.4358190880        0.0472978711
 C          5.9348446073        0.2261164245        0.2371531317
 C          7.1401632961        0.7786171177        0.5973487114
 C          7.1321765151        1.9613188587        1.3270085814
 C          5.9298034304        2.5557531982        1.6777145613
 C          4.7189993356        1.9899855151        1.3102673340
 C          4.7164238409        0.8084229672        0.5778356412
 C          3.5483014095        0.0697315433        0.0979346706
 C          2.2152011109        0.4168204257        0.2699511348
 C          1.2236293686       -0.4027762408       -0.2640157430
 N         -0.1422663530       -0.0663809866       -0.1096402813
 C         -0.7461235283       -0.1522260399        1.1408917320
 C          0.0027716384       -0.4616563369        2.2781205857
 C         -0.5944913506       -0.5298871367        3.5210521398
 C         -1.9514446427       -0.2966572212        3.6575618038
 C         -2.7053591557       -0.0238087093        2.5313389729
 C         -2.1237452077        0.0455226808        1.2745349504
 C         -3.0097143219        0.2380116731        0.0680139769
 C         -3.8079026566       -1.0297729636       -0.1875279733
 C         -3.3357063707       -2.2914990112       -0.4717690899
 C         -4.2547159251       -3.3113269255       -0.6794516529
 C         -5.6168819253       -3.0645905845       -0.6030083885
 C         -6.0955371816       -1.7964789416       -0.3146145393
 C         -5.1834140912       -0.7757088946       -0.1051859340
 C         -5.3754256321        0.6310512198        0.2135278482
 C         -6.5291193993        1.3736098729        0.4024235635
 C         -6.4083458457        2.7210121116        0.7037594977
 C         -5.1611685028        3.3166357893        0.8150923810
 C         -4.0009815192        2.5774732894        0.6253089248
 C         -4.1160572017        1.2379964573        0.3253504445
 C         -2.2201682232        0.5931782628       -1.1683067798
 C         -2.8853308276        1.0723248268       -2.2867418269
 C         -2.2043997542        1.3734299635       -3.4515337221
 C         -0.8319691392        1.2008639275       -3.4976593487
 C         -0.1533662220        0.7263563346       -2.3933394960
 C         -0.8381216683        0.4015527108       -1.2202542458
 C          1.5599772713       -1.5551335979       -0.9709441010
 C          2.8909710410       -1.9023555399       -1.1490317823
 C          3.8596456210       -1.0886927644       -0.6108162161
 H          8.0620148545        0.2959082292        0.3141473740
 H          8.0648383920        2.4169885847        1.6218924036
 H          5.9352988347        3.4740247062        2.2457952100
 H          3.7920458272        2.4650665596        1.5918886065
 H          1.9328109874        1.3127568394        0.8012688363
 H          1.0590685499       -0.6640763843        2.1890534821
 H          0.0072271741       -0.7707104244        4.3846600539
 H         -2.4219088513       -0.3454711152        4.6272235667
 H         -3.7709143830        0.1290744477        2.6206665480
 H         -2.2742638559       -2.4853964753       -0.5291947029
 H         -3.9047102471       -4.3083476335       -0.9031569282
 H         -6.3138104483       -3.8729896868       -0.7697580150
 H         -7.1575464763       -1.6099915513       -0.2546602084
 H         -7.5025519972        0.9141023183        0.3160525313
 H         -7.2974709155        3.3160837353        0.8535510763
 H         -5.0915140798        4.3683212175        1.0511674897
 H         -3.0292324002        3.0419279725        0.7103515461
 H         -3.9561649830        1.2053855008       -2.2394954351
 H         -2.7399125941        1.7408149805       -4.3130019829
 H         -0.2816573316        1.4401855667       -4.3950982743
 H          0.9189242940        0.6097047584       -2.4382640513
 H          0.7730768808       -2.1676398697       -1.3839120743
 H          3.1708273017       -2.7901691117       -1.6929735230
  64
  -104.860163602600       6.076446992467052E-002 !
 O          6.0645311751       -1.0977702206       -2.1277769885
 S          5.5894888988       -1.3253325506       -0.7904851411
 O          5.9686790188       -2.5550134345       -0.1507456857
 C          5.9378658346        0.0853155949        0.2665587331
 C          7.1616983445        0.5403152715        0.6941859358
 C          7.1982167643        1.6536017855        1.5252092469
 C          6.0203658789        2.2779942461        1.9060240353
 C          4.7905961175        1.8113669573        1.4689484726
 C          4.7436218074        0.6996130452        0.6356409408
 C          3.5492301055        0.0575201061        0.0864193484
 C          2.2320582687        0.4554918741        0.2708643765
 C          1.2065887832       -0.2889111616       -0.3090415352
 N         -0.1443819652        0.0813179337       -0.1288209317
 C         -0.7317489442        0.0304249425        1.1336116461
 C          0.0284914007       -0.2282741421        2.2757919598
 C         -0.5552987328       -0.2451951816        3.5269924387
 C         -1.9114681763       -0.0121674601        3.6686268755
 C         -2.6798178233        0.1962536485        2.5385524847
 C         -2.1117081012        0.2116949365        1.2738362024
 C         -3.0123228548        0.3042531429        0.0659199705
 C         -3.7051681582       -1.0330133400       -0.1423961038
 C         -3.1330460077       -2.2610048845       -0.3883144883
 C         -3.9665202420       -3.3598828286       -0.5482621628
 C         -5.3435025314       -3.2238154609       -0.4616296985
 C         -5.9224390252       -1.9898459957       -0.2114989194
 C         -5.0959701351       -0.8903482634       -0.0508137269
 C         -5.4007146309        0.5063104304        0.2205492171
 C         -6.6102790862        1.1573436317        0.3972221721
 C         -6.5990937286        2.5202547563        0.6487232371
 C         -5.4047301863        3.2208535959        0.7224455444
 C         -4.1889412216        2.5735857558        0.5457214993
 C         -4.1949765842        1.2186868677        0.2962096964
 C         -2.2477649195        0.6783552159       -1.1793487792
 C         -2.9333324010        1.1313831275       -2.2964006471
 C         -2.2675277925        1.4450584146       -3.4665888560
 C         -0.8904546430        1.3160160182       -3.5181803401
 C         -0.1923216585        0.8682273498       -2.4148542772
 C         -0.8615344196        0.5241327157       -1.2384122141
 C          1.4995907942       -1.4071840769       -1.0889947885
 C          2.8148589840       -1.7952046163       -1.2919741266
 C          3.8154415018       -1.0636299158       -0.6964171134
 H          8.0635926593        0.0354288808        0.3864836750
 H          8.1462028576        2.0310333015        1.8763844342
 H          6.0601558742        3.1402837799        2.5547866704
 H          3.8830889359        2.3068565685        1.7775571699
 H          1.9902849123        1.3367264362        0.8449987233
 H          1.0834068220       -0.4362981085        2.1880520855
 H          0.0573443657       -0.4455884612        4.3932341815
 H         -2.3709815556       -0.0176465697        4.6446948823
 H         -3.7465094447        0.3374331172        2.6319680696
 H         -2.0598839099       -2.3701844368       -0.4509129908
 H         -3.5372506168       -4.3320463200       -0.7412154452
 H         -5.9726663228       -4.0925298345       -0.5899250940
 H         -6.9954913624       -1.8895952980       -0.1432245136
 H         -7.5428443605        0.6158042879        0.3406202162
 H         -7.5330943451        3.0446645911        0.7891261963
 H         -5.4205249238        4.2828045925        0.9187765289
 H         -3.2583640931        3.1195682844        0.6016186948
 H         -4.0072746085        1.2331149299       -2.2440314823
 H         -2.8182985621        1.7902521506       -4.3276886535
 H         -0.3521078149        1.5693327764       -4.4190220605
 H          0.8831132840        0.7876893539       -2.4632665988
 H          0.6898056126       -1.9604073006       -1.5401314433
 H          3.0585711525       -2.6552576362       -1.8948939659
  64
  -104.860004464600       5.134698557950870E-002 !
 O          5.8888637262       -2.1704627075       -1.4648120997
 S          5.5578691829       -1.5760029701       -0.1989218396
 O          6.0632422265       -2.2126493824        0.9862850783
 C          5.9297534694        0.1821502003       -0.1981043254
 C          7.1601862787        0.7868895616       -0.2866268729
 C          7.2152587670        2.1754825537       -0.2761312684
 C          6.0488208377        2.9185109534       -0.1790354112
 C          4.8121873215        2.2988636896       -0.0908783953
 C          4.7466706361        0.9103012588       -0.0994260180
 C          3.5424561060        0.0827200629       -0.0259356697
 C          2.2320688184        0.5293747047        0.0768138466
 C          1.1945195005       -0.4004344316        0.1096479679
 N         -0.1509911752        0.0217184417        0.1854087792
 C         -0.8681418596       -0.2572541171        1.3469375066
 C         -0.1995852020       -0.6612857978        2.5041390841
 C         -0.8982076378       -0.9276402238        3.6645453373
 C         -2.2740346374       -0.7813265430        3.6990184857
 C         -2.9394877847       -0.3590807939        2.5629739472
 C         -2.2537355777       -0.0901629845        1.3883641363
 C         -3.0117686877        0.3158747222        0.1492551000
 C         -3.6521170855       -0.9111143257       -0.4813059668
 C         -3.0333368890       -2.0322177570       -0.9872558489
 C         -3.8237077862       -3.0409494353       -1.5215266202
 C         -5.2046891003       -2.9214632083       -1.5463631759
 C         -5.8304971640       -1.7930357742       -1.0410227253
 C         -5.0471130909       -0.7838695710       -0.5066095991
 C         -5.4054246660        0.4964865167        0.0842857726
 C         -6.6391378840        1.0913448148        0.2895670432
 C         -6.6813033785        2.3422957922        0.8845915836
 C         -5.5155423410        2.9875815669        1.2684715609
 C         -4.2757358086        2.3962196118        1.0650479488
 C         -4.2285227867        1.1531767374        0.4724928068
 C         -2.1096054514        0.9732969671       -0.8675789626
 C         -2.6710956521        1.7231589142       -1.8894566702
 C         -1.8971649853        2.2288618838       -2.9174531974
 C         -0.5433150672        1.9467889967       -2.9427809622
 C          0.0343908596        1.2076426218       -1.9294530273
 C         -0.7304890951        0.7374309205       -0.8605177684
 C          1.4696832751       -1.7670719188        0.0752299836
 C          2.7783355138       -2.2166967273       -0.0090262293
 C          3.7902649672       -1.2874321378       -0.0687134950
 H          8.0529938700        0.1869125511       -0.3638761720
 H          8.1688082208        2.6759005098       -0.3447909933
 H          6.1030508242        3.9969116514       -0.1732303083
 H          3.9137760557        2.8920268507       -0.0189712280
 H          2.0045098489        1.5824282329        0.1400241255
 H          0.8752366356       -0.7623019419        2.4945355209
 H         -0.3613229526       -1.2460238882        4.5454227634
 H         -2.8247753745       -0.9917590893        4.6025839763
 H         -4.0128271615       -0.2405912962        2.5803678446
 H         -1.9570808473       -2.1254698103       -0.9745444505
 H         -3.3572548780       -3.9284225719       -1.9232561822
 H         -5.7998169481       -3.7186669536       -1.9674360613
 H         -6.9063578295       -1.7038163709       -1.0649284101
 H         -7.5494994470        0.5922966427       -0.0076142928
 H         -7.6347387615        2.8217518999        1.0521202741
 H         -5.5727515708        3.9618093382        1.7312153523
 H         -3.3674480774        2.8988528433        1.3644438277
 H         -3.7366780239        1.8987455247       -1.8826634768
 H         -2.3514461924        2.8132972275       -3.7022746856
 H          0.0725436961        2.2996601251       -3.7564647989
 H          1.0875673553        0.9803025824       -1.9832716464
 H          0.6514759696       -2.4698444808        0.1207790300
 H          3.0080553339       -3.2697813783       -0.0380122861
  64
  -104.859843233500       4.329305861057190E-002 !
 O          6.2362032976       -1.1145973643        1.5699412844
 S          5.7590511287       -0.1073408057        0.6628454079
 O          6.4894801836        1.1288045221        0.5990981335
 C          5.4994600296       -0.7855143603       -0.9810350949
 C          6.4420276396       -1.2653858208       -1.8581287634
 C          6.0139985492       -1.7402442894       -3.0920650423
 C          4.6663624493       -1.7214034426       -3.4172953274
 C          3.7232373259       -1.2358029158       -2.5254243522
 C          4.1412399701       -0.7616037698       -1.2873537738
 C          3.3002949192       -0.2164500636       -0.2220918525
 C          1.9195714258       -0.0885392492       -0.2359924316
 C          1.2685032375        0.4489096422        0.8728052545
 N         -0.1394633514        0.5576001815        0.8342095655
 C         -0.9373073638       -0.1970512969        1.6920886312
 C         -0.3827835522       -0.9226509359        2.7472089325
 C         -1.1865423604       -1.6413083160        3.6100631834
 C         -2.5588846173       -1.6566594552        3.4373448929
 C         -3.1115718942       -0.9792777549        2.3661256073
 C         -2.3197173449       -0.2586585106        1.4857648231
 C         -2.9400402267        0.3410321222        0.2464100211
 C         -3.1339277519       -0.7548795568       -0.7904114678
 C         -2.1794974093       -1.5565271418       -1.3754574154
 C         -2.5870473124       -2.4992749580       -2.3096898126
 C         -3.9255205811       -2.6314630464       -2.6455891120
 C         -4.8894168532       -1.8296972818       -2.0554246787
 C         -4.4884386724       -0.8879164096       -1.1226192860
 C         -5.2521620529        0.0740634779       -0.3429028727
 C         -6.6112418768        0.3370623429       -0.2999822184
 C         -7.0683215860        1.3259729493        0.5566019115
 C         -6.1869787047        2.0393324850        1.3549554738
 C         -4.8232935597        1.7807609295        1.3155406864
 C         -4.3639776203        0.7977120559        0.4661164688
 C         -2.0740099116        1.4307156172       -0.3361629465
 C         -2.6167281851        2.3629084101       -1.2067969701
 C         -1.8273960257        3.3309114836       -1.8004168310
 C         -0.4739118880        3.3731332631       -1.5145681629
 C          0.0820082763        2.4557787668       -0.6456061354
 C         -0.7063147993        1.4655700093       -0.0563551881
 C          1.9973280137        0.8759371595        1.9815860133
 C          3.3784816809        0.7407445783        2.0023089264
 C          4.0052533829        0.1943047018        0.9076006920
 H          7.4848160954       -1.2678539399       -1.5832421935
 H          6.7334466432       -2.1226504826       -3.7995859212
 H          4.3452868898       -2.0905491849       -4.3798451095
 H          2.6783648869       -1.2260136722       -2.7943813578
 H          1.3380228199       -0.3934401489       -1.0926730139
 H          0.6864030963       -0.9403284881        2.8886102329
 H         -0.7323778034       -2.1927123502        4.4195654722
 H         -3.1912975626       -2.2098394753        4.1140742941
 H         -4.1774865548       -1.0191956252        2.1969429168
 H         -1.1365705351       -1.4612490619       -1.1096817644
 H         -1.8534323091       -3.1385933024       -2.7788593928
 H         -4.2199600751       -3.3716670056       -3.3752432923
 H         -5.9311997122       -1.9392842397       -2.3175356614
 H         -7.3010400868       -0.2162939347       -0.9197490037
 H         -8.1252458974        1.5443258354        0.6039939518
 H         -6.5660215613        2.8052908696        2.0152931884
 H         -4.1365944412        2.3369372623        1.9369319744
 H         -3.6733939153        2.3214947665       -1.4260000164
 H         -2.2660786953        4.0454270899       -2.4794596288
 H          0.1549405920        4.1274503198       -1.9630695879
 H          1.1354429581        2.5094945773       -0.4151718535
 H          1.4797235145        1.3216529263        2.8173460323
 H          3.9581925781        1.0622892846        2.8529018383
  64
  -104.859693130000       3.693477663842561E-002 !
 O          5.9953956244       -1.2500430745       -2.1514865133
 S          5.5089185309       -1.4374060812       -0.8122521700
 O          5.8236173322       -2.6778872828       -0.1583978857
 C          5.9299576828       -0.0366803910        0.2313252811
 C          7.1770911511        0.3657977943        0.6439279320
 C          7.2718080743        1.4830761797        1.4648586976
 C          6.1270308964        2.1633228590        1.8506559887
 C          4.8732581941        1.7488051470        1.4294938798
 C          4.7679897697        0.6332990529        0.6066439720
 C          3.5408769074        0.0426287674        0.0716967008
 C          2.2437844586        0.4957210408        0.2724584124
 C          1.1810392158       -0.2040590448       -0.2958870958
 N         -0.1533831185        0.2115233782       -0.0972058993
 C         -0.7355682769        0.1790876256        1.1687569687
 C          0.0282377711       -0.0420892938        2.3156053340
 C         -0.5551361480       -0.0319088206        3.5673912823
 C         -1.9129897963        0.1930036413        3.7039517728
 C         -2.6855886450        0.3603631470        2.5695577432
 C         -2.1185698644        0.3454477858        1.3048413356
 C         -3.0130876377        0.3733507626        0.0888079616
 C         -3.5871028567       -1.0175428755       -0.1352105641
 C         -2.9107305688       -2.1941621348       -0.3677221258
 C         -3.6469206624       -3.3574457348       -0.5482607980
 C         -5.0320535617       -3.3352375879       -0.4950600519
 C         -5.7158220908       -2.1538978819       -0.2558963856
 C         -4.9865188250       -0.9907883556       -0.0742268548
 C         -5.4116118780        0.3739137243        0.1967756440
 C         -6.6748703538        0.9200652335        0.3520328330
 C         -6.7832033697        2.2769918673        0.6121199073
 C         -5.6533993789        3.0743670719        0.7151662239
 C         -4.3843237497        2.5325858670        0.5595375913
 C         -4.2712580413        1.1835978018        0.3017642600
 C         -2.2584955723        0.8085373949       -1.1430570415
 C         -2.9433776170        1.2874537750       -2.2492752559
 C         -2.2737121039        1.6408087931       -3.4063194838
 C         -0.8956262232        1.5232775067       -3.4567886239
 C         -0.1979943016        1.0511453918       -2.3632032259
 C         -0.8703755357        0.6713733513       -1.2002165864
 C          1.4190546915       -1.3272715893       -1.0881380324
 C          2.7137600025       -1.7713466554       -1.3054940531
 C          3.7505703606       -1.0876335493       -0.7149976507
 H          8.0522138849       -0.1816973371        0.3318014183
 H          8.2392281598        1.8206358422        1.8033622695
 H          6.2119872373        3.0291719593        2.4902263911
 H          3.9923111204        2.2884040200        1.7410736755
 H          2.0477021486        1.3876914718        0.8473145975
 H          1.0845284299       -0.2440312782        2.2324415837
 H          0.0596653314       -0.2035260663        4.4382693283
 H         -2.3714344646        0.2109431949        4.6804447754
 H         -3.7540284908        0.4894811374        2.6610618820
 H         -1.8312023171       -2.2167242023       -0.4033387127
 H         -3.1343135183       -4.2905437341       -0.7308746526
 H         -5.5844024992       -4.2522890527       -0.6391905275
 H         -6.7946233458       -2.1425147307       -0.2110305195
 H         -7.5573846151        0.3028743241        0.2716584401
 H         -7.7604461203        2.7202464619        0.7361811739
 H         -5.7620944014        4.1295743761        0.9182804294
 H         -3.5041734301        3.1539934876        0.6387163740
 H         -4.0186166788        1.3761409624       -2.2015030861
 H         -2.8235804202        2.0057998785       -4.2597447176
 H         -0.3565319754        1.8050235445       -4.3486380365
 H          0.8784124895        0.9785322347       -2.4075038004
 H          0.5822815862       -1.8414541919       -1.5364580929
 H          2.9141275875       -2.6381437438       -1.9146390118
