47
 energy: -67.118418670236 gnorm: 0.000038612315 xtb: 6.7.1 (edcfbbe)
C           -1.81671935081892       -2.46243488771605       -1.10746291446018
C           -1.06735730978128       -1.73797871275051        0.04417858850266
C           -1.52069606744798       -2.22332481460622        1.44755432789618
C            0.38623114339483       -2.14392268588156       -0.03987588616028
C            0.71911116422432       -3.49042490023909       -0.07756239763028
C            2.03484545253141       -3.91709108853968       -0.10116269159404
C            3.06010026929726       -2.97653643666471       -0.07719898537717
C            2.76261090858208       -1.63609959655366       -0.04416031239696
C            1.42530337435291       -1.19763095891054       -0.03382877201763
N            1.13393318020893        0.14315095892098       -0.02508817995732
C            2.22416550047997        1.06480644260671        0.01157325454614
C            2.69026769986665        1.52960999171616        1.23409197232456
C            3.75577193401684        2.41281635497698        1.26969513150660
C            4.35300885561650        2.83115796997745        0.09147254461145
C            3.88452051823565        2.36683194521956       -1.12677108095641
C            2.82000331322516        1.48302246479518       -1.17173315030621
C           -0.14329403856241        0.64817678226276       -0.06591828296171
C           -0.32890498361284        2.01947022832830       -0.13982752081582
C           -1.59828932544454        2.56231061725464       -0.16570317060527
C           -2.74971229640932        1.73697921868576       -0.09505435822328
C           -4.01930571529371        2.30547924145841       -0.10239356845134
C           -5.18072950599625        1.51196490072264       -0.02603443124199
C           -5.05034973489286        0.15220257074843        0.05988245467593
C           -3.78152079442919       -0.44675366777549        0.06730334368727
C           -2.58965669531668        0.31397981823852       -0.01504655776325
C           -1.28995242476904       -0.24769960484066       -0.02839391251036
H           -2.52887554566350       -1.80096076813355       -1.59071733185393
H           -1.10507705105632       -2.78386972658973       -1.86564111641289
H           -2.34702759934416       -3.33889421352171       -0.74407574573649
H           -2.51824814351362       -1.87268133489224        1.68994575979781
H           -0.83692725857143       -1.83055876131959        2.19905047583110
H           -1.49986596466195       -3.30847303261258        1.50201847823199
H           -0.06808937718910       -4.22828627927019       -0.09169783332880
H            2.26258189386290       -4.97155609810126       -0.13262625946108
H            4.09145790888367       -3.29645047592862       -0.08630690997252
H            3.56067479582375       -0.91063065805773       -0.02793339925216
H            2.21629842921681        1.19751789931245        2.14590980700771
H            4.11874815227408        2.77381982423299        2.22022897910327
H            5.18345139696371        3.52029256611135        0.12279890902451
H            4.34739252543017        2.69238360503605       -2.04630214099136
H            2.44515173175925        1.11467732817673       -2.11518545221919
H            0.52359264595204        2.67954813667909       -0.17992173829824
H           -1.72723628042629        3.63226483872922       -0.23007909662229
H           -4.11096345924380        3.38056901985329       -0.16815482793933
H           -6.15336937867516        1.98297721434143       -0.03505394568389
H           -5.92401982748298       -0.48180066588376        0.12241174985830
H           -3.75575521370092       -1.51849378879151        0.13680613081476
