  47
        -67.09335432
 C         -1.4965092734       -2.1989105907       -1.4779788832
 C         -1.0655884180       -1.7342268628       -0.0622142020
 C         -1.8362802198       -2.4698070644        1.0653569292
 C          0.3849845534       -2.1441059020        0.0389071676
 C          0.7140258918       -3.4905365548        0.0728119174
 C          2.0289208950       -3.9200133553        0.0998919757
 C          3.0554268786       -2.9812789616        0.0769054138
 C          2.7612967751       -1.6402326635        0.0456274381
 C          1.4252378582       -1.1991737768        0.0406961560
 N          1.1345063647        0.1409917849        0.0394440489
 C          2.2216730235        1.0612525139       -0.0115629631
 C          2.8807878638        1.4261300455        1.1565373790
 C          3.9434955580        2.3106771671        1.0945054834
 C          4.3480902132        2.8285755821       -0.1246149400
 C          3.6881812422        2.4635977478       -1.2876848288
 C          2.6240719278        1.5803724832       -1.2345009083
 C         -0.1409161524        0.6467861732        0.0894415671
 C         -0.3249597277        2.0161561100        0.1978427086
 C         -1.5935486947        2.5585579018        0.2243476198
 C         -2.7448930605        1.7361162235        0.1147462144
 C         -4.0130453469        2.3049653117        0.1191673436
 C         -5.1731488955        1.5138863095        0.0081352723
 C         -5.0426472023        0.1564720123       -0.1097476759
 C         -3.7751675190       -0.4433519770       -0.1151015243
 C         -2.5851869167        0.3159157426        0.0032539310
 C         -1.2877022261       -0.2459436245        0.0261454285
 H         -0.7981989733       -1.7985625469       -2.2113578844
 H         -1.4777496150       -3.2832066330       -1.5469686071
 H         -2.4878390353       -1.8403385506       -1.7305549954
 H         -2.3386111479       -3.3565175820        0.6870521858
 H         -2.5738083445       -1.8192348746        1.5229396157
 H         -1.1414795962       -2.7773991985        1.8444879039
 H         -0.0751970838       -4.2261547472        0.0798500661
 H          2.2544629228       -4.9744278628        0.1303878524
 H          4.0855919511       -3.3036131780        0.0838033496
 H          3.5608341444       -0.9165099200        0.0259825928
 H          2.5546395435        1.0151113747        2.1003387133
 H          4.4549796437        2.5952469303        2.0015662503
 H          5.1779462513        3.5172248878       -0.1694391086
 H          4.0027277612        2.8649949287       -2.2389833621
 H          2.1004270165        1.2886830600       -2.1327773542
 H          0.5288374047        2.6716535850        0.2656617137
 H         -1.7230164163        3.6252553757        0.3186761629
 H         -4.1054279996        3.3769307156        0.2117060406
 H         -6.1451500345        1.9839692237        0.0155086460
 H         -5.9150796477       -0.4748146122       -0.2005557010
 H         -3.7477533625       -1.5122154178       -0.2121498281
