47
 energy: -67.118421501082 gnorm: 0.000025941846 xtb: 6.7.1 (edcfbbe)
C           -1.51052915297470       -2.21016914885922       -1.47379473917086
C           -1.06755956285921       -1.73703732198784       -0.06291629945965
C           -1.82455565605966       -2.47052107493852        1.07745460812673
C            0.38506770636542       -2.14532297163336        0.02712886366550
C            0.71627294024289       -3.49240100755657        0.05894071983217
C            2.03146949839206       -3.92075872460990        0.08061794539476
C            3.05789050385745       -2.98148094807865        0.05771815363068
C            2.76204994811159       -1.64051977505880        0.03083343320739
C            1.42537548666629       -1.20026270870207        0.02734223479742
N            1.13513315916853        0.14090438400605        0.02839393221523
C            2.22485669051600        1.06266076141406       -0.01211754917750
C            2.85872461092374        1.44186715445121        1.16477443470050
C            3.92222124689480        2.32657222555984        1.11487748944505
C            4.35194294761724        2.83090872001391       -0.10170738254522
C            3.71719580125594        2.45107128302024       -1.27350375776884
C            2.65257732920688        1.56716205890602       -1.23296003122044
C           -0.14168581917430        0.64628002737586        0.07831978830710
C           -0.32582905180882        2.01622482139157        0.17796258649927
C           -1.59452439968045        2.56031877438442        0.20478749094401
C           -2.74650284691174        1.73833670499512        0.10706385479905
C           -4.01504815710678        2.30913462956898        0.11122784537158
C           -5.17713451017615        1.51924143285692        0.01165344336013
C           -5.04836408441406        0.16062221397085       -0.09341682415529
C           -3.78062666645942       -0.44053315298259       -0.09936393329601
C           -2.58803450331648        0.31648165596089        0.00539449494488
C           -1.28929058211630       -0.24736907568948        0.02238751959209
H           -0.81993381963257       -1.81251158642556       -2.21644858606857
H           -1.49070976674510       -3.29489355165457       -1.53682137730646
H           -2.50536802431521       -1.85620415533574       -1.72209747582952
H           -2.32810673627841       -3.36032333834004        0.70845926982237
H           -2.56070659332407       -1.82266859719990        1.54260277048733
H           -1.12095010788236       -2.77175275352358        1.85137409868558
H           -0.07166773913746       -4.22944888654045        0.06898911316968
H            2.25791791337947       -4.97561816537669        0.10789261795267
H            4.08886177880791       -3.30272030723223        0.06242626771470
H            3.56108424022087       -0.91616002110922        0.01392467737884
H            2.51377859500906        1.04252559477709        2.10702034977922
H            4.41449596848816        2.62187448044630        2.02932235447227
H            5.18138961595886        3.52102040198746       -0.13686878144469
H            4.05044273320636        2.84279162518454       -2.22274519526932
H            2.14914477495654        1.26565212730014       -2.13962358252073
H            0.52746743734424        2.67380119768036        0.23777575229051
H           -1.72260551410986        3.62888968554043        0.29032763480235
H           -4.10532246374082        3.38318101435425        0.19391845721026
H           -6.14898872072210        1.99190484891827        0.01888295237167
H           -5.92255962939830       -0.47068207935883       -0.17347751438358
H           -3.75655510736719       -1.51110433929302       -0.18637518373419
