43
 energy: -65.154183605999 gnorm: 0.000024195149 xtb: 6.7.1 (edcfbbe)
C           -2.38971885699537        3.61419436066249        0.08743874296897
C           -1.00596874354196        3.66952733507913        0.10782388545565
C           -0.27330565184469        2.49577386536277        0.09218976923186
C           -0.90025982476488        1.26009591427171        0.05735971906970
C           -2.29596211501954        1.20823387087679        0.03801761778870
C           -3.03138370032237        2.39275556794565        0.05356313382124
N           -2.94647355441237       -0.00396803192202        0.00240061031578
C           -2.29280700953500       -1.21441886357712        0.03976349098515
C           -3.02512843409035       -2.40083878483493        0.05688951111303
C           -2.38027501263447       -3.62053943515615        0.09278898933841
C           -0.99639150634752       -3.67221816915374        0.11368222616986
C           -0.26679990295740       -2.49657870099988        0.09632822662324
C           -0.89697922117638       -1.26260378555788        0.05936483624022
C           -0.06412211547293       -0.00018636056624        0.02481202825796
C            0.95448812975522        0.00188186435364        1.14724587409691
C            0.72517025781981        0.00261168324230        2.50515321690190
C            1.81794482228705        0.00426701691719        3.36189622303541
C            3.11137613576377        0.00515436668612        2.86232118152742
C            3.34669339150492        0.00446521080323        1.49661760457388
C            2.26055432455934        0.00283163209007        0.63732334413788
C            2.18852851331135        0.00169332452380       -0.81607030342735
C            3.18411930663209        0.00207933117838       -1.77879678535077
C            2.81462181478218        0.00068375979851       -3.11440625351198
C            1.47808708441775       -0.00105528106378       -3.48346166518665
C            0.47566018378480       -0.00143201898030       -2.52269015471414
C            0.83880399782670       -0.00005334203682       -1.19439946386435
H           -2.97109516964849        4.52418312740720        0.09834320272202
H           -0.49941756816526        4.62199590424860        0.13445652466715
H            0.80637548891900        2.53431038569072        0.10606818795563
H           -4.11141901675504        2.34157782990611        0.03826432492148
H           -3.95481753723510       -0.00527685532937        0.00342873226081
H           -4.10528986838454       -2.35251266220111        0.04122190138508
H           -2.95926753097585       -4.53203151236132        0.10489886713467
H           -0.48734886880753       -4.62330868303122        0.14202042087295
H            0.81297424297605       -2.53227430877992        0.11053189138103
H           -0.28272739620558        0.00188288959430        2.89446182504177
H            1.65884135699921        0.00484805675167        4.43030153580374
H            3.94655487744481        0.00639161750435        3.54780723990655
H            4.35603432013622        0.00514598905144        1.11214129009760
H            4.22662986269484        0.00343736624003       -1.49636982538648
H            3.57772561135197        0.00095948822067       -3.87931187447842
H            1.21388159443309       -0.00211857000947       -4.53085015812987
H           -0.56587354230747       -0.00277618783625       -2.81019761252075
