43
 energy: -65.154191650562 gnorm: 0.000034635061 xtb: 6.7.1 (edcfbbe)
C           -2.41154937719935        3.61805425162527       -0.00011970113346
C           -1.02755940702832        3.67168665370567       -0.00016763673404
C           -0.29673435920020        2.49671897776711       -0.00012481518371
C           -0.92566978946998        1.26153149938858       -0.00003487620125
C           -2.32153674759038        1.21140026856716        0.00001357974031
C           -3.05515305612951        2.39719104555272       -0.00002943469041
N           -2.97411812327333       -0.00009152272712        0.00010370154906
C           -2.32145501260790       -1.21153925031753        0.00011583148264
C           -3.05499110273191       -2.39737969565965        0.00016816895062
C           -2.41130496433879       -3.61819940837898        0.00018083659078
C           -1.02731140088385       -3.67173823850836        0.00014422695356
C           -0.29656587610197       -2.49672117275446        0.00009267987926
C           -0.92558477856070       -1.26157619554134        0.00007611181334
C           -0.09076830876396        0.00000631331875        0.00000822293025
C            0.87128056830838        0.00008804762872        1.17224632700424
C            0.57472524323432        0.00015167000709        2.51701199156114
C            1.62364196307496        0.00022109588107        3.42685678382678
C            2.94023070275521        0.00022517615010        2.99197610704892
C            3.24297446865936        0.00016173331232        1.63965650286450
C            2.20079053472241        0.00009387493140        0.72755553163445
C            2.20076336567939        0.00002350290413       -0.72762538108595
C            3.24291198372636       -0.00000237166988       -1.63976675632675
C            2.94011563452213       -0.00007208846197       -2.99207461702717
C            1.62351014928742       -0.00011446816456       -3.42690473879990
C            0.57462881848899       -0.00009030884182       -2.51701939603790
C            0.87123675264314       -0.00002187134562       -1.17226542467408
H           -2.99155444199288        4.52898535461342       -0.00015339068248
H           -0.51951821295778        4.62373372387352       -0.00023847550189
H            0.78309364042793        2.53373759299314       -0.00016182492703
H           -4.13536290253652        2.34744475813607        0.00000806073760
H           -3.98242903090624       -0.00012555292944        0.00012404537078
H           -4.13520429896388       -2.34770645089551        0.00019733856938
H           -2.99124836907644       -4.52916975075103        0.00021997201885
H           -0.51920559722749       -4.62375082015029        0.00015432782661
H            0.78326455035364       -2.53366731845394        0.00006141506717
H           -0.45124965802509        0.00014918852513        2.85586034123146
H            1.41177919839900        0.00027282242607        4.48606873067422
H            3.74037308959319        0.00027857528761        3.71804936220662
H            4.27016248795940        0.00016526931983        1.30576496955785
H            4.27011301175955        0.00002997195045       -1.30591530169285
H            3.74022983891523       -0.00009474734411       -3.71817887614538
H            1.41160632768246       -0.00016811973778       -4.48610842810986
H           -0.45135951463993       -0.00012401522323       -2.85582709212584
