164
 energy: -257.070545794294 gnorm: 0.000054023431 xtb: 6.7.1 (edcfbbe)
C           12.01374402296223        1.09361645876309        0.35239978308843
C           10.71408846494247        0.86616274071163       -0.36023028061566
C           10.69354584536884        0.21837579969029       -1.59164012710025
C            9.49415774557491       -0.00349036590466       -2.24435312889463
C            8.30142697099562        0.41479738981813       -1.68600716762602
C            8.30278995259692        1.05840712001604       -0.44998899233569
N            7.10285763540653        1.48734897759841        0.13192316681830
C            7.05816609843294        2.70616709602357        0.81882330603053
C            6.29603466227985        2.84205573475962        1.97817093372689
C            6.25357832058244        4.05695384889623        2.63534895551530
C            6.97007882574919        5.14091884634233        2.16009480176831
C            7.74502914087894        5.02038348008419        1.01033344190311
C            8.53318841000845        6.19135376851727        0.50425994047945
C            7.77675160946820        3.80475035438643        0.34736831376762
C            5.95423866030288        0.69525635004124        0.03389902063277
C            6.05944426538842       -0.68856826737834        0.06172131286021
C            4.91721162312276       -1.47857622401536       -0.05971782694757
C            3.64056595400391       -0.88664551042758       -0.16021009580969
C            3.55979030019472        0.52043876749868       -0.15594928133087
C            4.70655574801434        1.30180069620242       -0.09146227434178
N            2.31488419454314        1.12636819571087       -0.24308237254824
C            2.28601513468701        2.54304373760538       -0.30841460223834
C            2.24873670885627        3.21659122374896       -1.52741384671428
F            2.22053972500273        2.48993869951772       -2.66366459690040
C            2.23915266561045        4.59688449940931       -1.61152990106153
C            2.27084088346112        5.34322735631292       -0.44620487094733
C            2.30540082100651        4.71568626769242        0.78738685916635
C            2.31157131252993        3.33463566074668        0.83928140059952
F            2.34752512368817        2.72350611681569        2.04069207037538
C            1.10771916545846        0.44620731708150       -0.17120833748895
C           -0.07486772108525        1.17900945949825       -0.13771558213943
C           -1.31346991675897        0.55986656289150        0.00097723192427
C           -1.38722862429610       -0.84037188191450        0.18513546930811
C           -0.18716219142379       -1.53738603604795        0.07248721305260
C            1.06529739288146       -0.96703713506212       -0.13790045623700
B            2.39259908408760       -1.74261161026267       -0.27496929522609
C            2.66007258216592       -3.24789405091601       -0.48064325845217
C            1.69738758509287       -4.20124260174138       -0.84118279851911
C            1.97810334244279       -5.54297592785604       -0.94374261018340
C            3.26749023287173       -6.00961894338465       -0.68233508877376
C            3.57090449548170       -7.47578802989594       -0.75474679961925
C            4.25103198315499       -5.09333418889942       -0.37666221655945
C            3.98022004724536       -3.71941323911944       -0.30130259816416
N            5.03090664867626       -2.85172172024109       -0.05868430934093
C            6.33482416858843       -3.40052868468692        0.14368052763677
C            6.78633600959314       -3.64621740447729        1.43224177358393
C            8.05667562003167       -4.16536556949929        1.61882951302192
C            8.86580170089962       -4.43655365934845        0.53083344784632
C            8.42302198171531       -4.19453176866049       -0.76644649634349
C            9.30697169585772       -4.50333308243225       -1.93585279038929
C            7.15046427467029       -3.67277940989399       -0.94752772249778
B           -2.77140858894258       -1.47319624363707        0.44009770401325
C           -3.15811556333367       -2.90101110259370        0.87773453847915
C           -2.27284921010662       -3.86140925241564        1.38722017904929
C           -2.66130993663094       -5.14266578025958        1.69843353122178
C           -3.98599809843637       -5.53841762490572        1.50539291118823
C           -4.40654367457647       -6.94488508085092        1.80868917311526
C           -4.89428470682600       -4.60478291640527        1.05409954870923
C           -4.51366824833288       -3.28564676527663        0.76848556889188
N           -5.49277690827499       -2.38209061014243        0.39304934086779
C           -6.83150982803305       -2.85405026854639        0.22743268152269
C           -7.27520152249501       -3.22455027814929       -1.03378133424979
C           -8.57680774111319       -3.67017100753106       -1.19216168370008
C           -9.42523483016802       -3.74470071945517       -0.10302610573109
C           -8.99079121130614       -3.37687783428841        1.16722440168723
C           -9.92261967880269       -3.46265873938696        2.33698641420193
C           -7.68651419397844       -2.92940665385450        1.31981156125666
C           -5.26919054496121       -1.03674724309409        0.19693097472632
C           -6.34670537376932       -0.17932998310337       -0.02131261872308
C           -6.12724510109270        1.17851334542639       -0.20615470591352
N           -7.21351914572145        2.03986315631745       -0.40028320038355
C           -8.40031702106834        1.82959503753852        0.31400561224047
C           -9.63884721724354        2.01252477255377       -0.29854186407203
C          -10.79878076486168        1.80343824231269        0.42242964291342
C          -10.74322073345610        1.41160578019198        1.74883726937525
C           -9.51577502302722        1.22587562496758        2.37593392473472
C           -9.44647080688707        0.85148486566483        3.82634679406110
C           -8.35413492977222        1.43663552248389        1.65022041988995
C           -7.11012115031995        3.11299718243146       -1.29054469913611
C           -7.73374450112868        4.32933759979268       -1.01185431993581
C           -7.61580361503068        5.38219903743419       -1.89811393696771
C           -6.87362211534080        5.24784981146352       -3.05916211817475
C           -6.24461243092736        4.04308680414671       -3.35306934634437
C           -5.46274534592256        3.87224565647863       -4.62136835380349
C           -6.37491776667435        2.98432432312875       -2.46811059507651
C           -4.83195836949886        1.68982869082894       -0.19701033295741
C           -3.75158541976824        0.83430492385180       -0.02049392254681
C           -3.94721744912688       -0.54411330712620        0.19906334371555
N           -2.46016483152914        1.34026867345521       -0.03476123963634
C           -2.31479381961739        2.74455271206026       -0.17224227362163
C           -2.27803294041836        3.36408398570510       -1.42074813330123
F           -2.37124213732250        2.59331240098745       -2.52344368370524
C           -2.15640272483631        4.73310822868519       -1.56571562591741
C           -2.06692790731476        5.52481290077777       -0.43345123556655
C           -2.09603059027750        4.95210029314199        0.82634968966265
C           -2.21941367286636        3.57945119753235        0.93908607993636
F           -2.25058898208255        3.02230595020131        2.16727445221477
C            9.51617037235381        1.27580328781501        0.20153134571434
H           11.88290195032203        1.76760288066911        1.19529934868026
H           12.40668393725329        0.14739731810603        0.72502599868194
H           12.75241666735123        1.51642854319164       -0.32653174366947
H           11.62139571332544       -0.10788654609617       -2.03857586528317
H            9.48688442136648       -0.49823793669402       -3.20493845967745
H            7.36622716610769        0.25062886070098       -2.20079355496572
H            5.74052524484621        1.99605888312059        2.35558496111301
H            5.65818417830441        4.15302758472705        3.53218812749919
H            6.93314005289453        6.08529450646374        2.68330950618252
H            9.36347413363738        6.40108610811357        1.17888608054137
H            8.93618729419644        5.99128715876388       -0.48527574892662
H            7.90902994430630        7.08213725988498        0.45867795576426
H            8.36425730260631        3.69752905415620       -0.55366764725418
H            7.03456197657066       -1.13604112396672        0.16764628892712
H            4.65777616767537        2.37954419589943       -0.12456933574020
H            2.21116853743246        5.06426621071901       -2.58260200288028
H            2.26788447749368        6.41954613326153       -0.49886334080592
H            2.33182484497498        5.27634082675113        1.70761147475231
H           -0.02962192530627        2.25580385726495       -0.22016328704040
H           -0.23182873575257       -2.60873822004927        0.15513604998563
H            0.69802530716406       -3.86480692587217       -1.06900266138190
H            1.20189063432126       -6.24200464194761       -1.22268879294293
H            2.98675756065434       -8.01750872458014       -0.01086663293467
H            3.30558332360896       -7.86998196160642       -1.73531782202070
H            4.62628395242048       -7.66602730511255       -0.57451076932470
H            5.25596120358139       -5.44844128119780       -0.20152506297322
H            6.14388628748599       -3.42902065075550        2.27265515345067
H            8.41445422468287       -4.35855029590990        2.61954328490041
H            9.85534059652658       -4.84186910710351        0.68491128741109
H            9.50171586541896       -5.57432108496719       -1.98691952543043
H           10.26465415636380       -3.99600614011218       -1.83044503433962
H            8.84399074663291       -4.18991047698112       -2.86766408649825
H            6.77756435547251       -3.47307398156578       -1.94206539599016
H           -1.24737811596544       -3.57629844180814        1.56340622486807
H           -1.94293466044407       -5.85049025972011        2.08795647684878
H           -5.46150390181234       -7.09321206081966        1.59066425464586
H           -4.23092936466105       -7.17360522850038        2.85977210126652
H           -3.82380468059737       -7.64865195046120        1.21492542986094
H           -5.92580133333570       -4.90039555306448        0.93074240971617
H           -6.60213757783707       -3.16164084140735       -1.87589242578308
H           -8.92796906618295       -3.96084711504878       -2.17138587760133
H          -10.43917481027721       -4.09372332335986       -0.23480633974077
H          -10.74388643709909       -2.75778762108398        2.21190378887299
H           -9.40562487960762       -3.23510703776476        3.26513425583254
H          -10.35062800952612       -4.46145095455614        2.40893531389969
H           -7.31818484074234       -2.63832033205946        2.29306089854332
H           -7.35864445430568       -0.55127229468690       -0.04007315834053
H           -9.68263701892894        2.31446644566957       -1.33479730650443
H          -11.75654262969962        1.94161192937571       -0.05865523901567
H          -11.65711119447980        1.25188506418813        2.30238710071410
H          -10.29802199711361        0.23817768495600        4.11116206871683
H           -8.52752357822427        0.31342569932141        4.04569974641650
H           -9.46265540493725        1.75299455364928        4.44051763131157
H           -7.39156744386323        1.30113157015822        2.12319118274278
H           -8.30308845047015        4.44118663069514       -0.10075795442760
H           -8.09989305953967        6.32210106972435       -1.67442339770663
H           -6.78377895761404        6.08028971731689       -3.74166462394323
H           -5.07841832208812        4.82730951793124       -4.97179185893738
H           -6.10517905472852        3.46038929928445       -5.40069681324294
H           -4.63271257594743        3.18446074562100       -4.47453185086914
H           -5.89692868706648        2.04048568945865       -2.68996799741364
H           -4.69617589656812        2.75161217196164       -0.33571563665262
H           -2.13626171613807        5.15835523731023       -2.55583475358460
H           -1.97428523276294        6.59372592523683       -0.53376026117089
H           -2.02822047986211        5.54901755343723        1.72143127522462
H            9.51300788666767        1.77206272119969        1.16195705603581
