  164
       -256.97922049
 C         12.0451661162        1.1439786523       -0.1733362849
 C         10.6976860618        0.8104382939       -0.7394188551
 C         10.5707075480        0.0018424337       -1.8616432613
 C          9.3159431042       -0.3087241417       -2.3593375856
 C          8.1781275104        0.1778719190       -1.7496444727
 C          8.2865868248        0.9879111915       -0.6186465998
 N          7.1396549010        1.4806749490        0.0109075731
 C          7.1155799511        2.7761932730        0.5288027574
 C          6.3858206074        3.0682904065        1.6814779043
 C          6.3513133844        4.3609293610        2.1654573948
 C          7.0464038517        5.3732249866        1.5277313124
 C          7.7894997152        5.0976609036        0.3847696477
 C          8.5616712858        6.1865558416       -0.2977969048
 C          7.8121733781        3.8037060893       -0.1075678871
 C          6.0074168857        0.6643701097        0.1090783835
 C          6.1579350556       -0.7008836303        0.3060742664
 C          5.0365871053       -1.5279338369        0.3490272643
 C          3.7384388917       -0.9813611169        0.2878546019
 C          3.6173266979        0.4145228336        0.1464758667
 C          4.7377620192        1.2227750342        0.0033221776
 N          2.3578742149        0.9905261550        0.1200201196
 C          2.2927232495        2.3930419254        0.2552280515
 C          1.8899329636        3.2386318859       -0.7798122987
 F          1.5752230576        2.6998728200       -1.9744773289
 C          1.7943887570        4.6091740363       -0.6268100520
 C          2.1318758251        5.1799425286        0.5878881290
 C          2.5554423216        4.3828453024        1.6370024811
 C          2.6230175705        3.0140217678        1.4613831065
 F          3.0171005699        2.2467371931        2.4929698841
 C          1.1746699131        0.2666611871        0.0521561239
 C         -0.0271334940        0.9572902367       -0.0316071609
 C         -1.2455491126        0.3010309125       -0.1431602769
 C         -1.2783704860       -1.1079443240       -0.2630345430
 C         -0.0602972149       -1.7629756247       -0.0984981614
 C          1.1727147803       -1.1471645466        0.1037607495
 B          2.5100221228       -1.8700090291        0.3725212135
 C          2.8094372469       -3.3493633312        0.6949479764
 C          1.8495076877       -4.3192215743        1.0154175393
 C          2.1621394854       -5.6431513453        1.2102654417
 C          3.4823023523       -6.0757513306        1.0788674890
 C          3.8221361980       -7.5261347106        1.2411786240
 C          4.4599297510       -5.1411708955        0.8156119383
 C          4.1551196851       -3.7809274724        0.6619545464
 N          5.1957668863       -2.8908179248        0.4711303917
 C          6.5328241846       -3.3826490478        0.4684194287
 C          7.1563269090       -3.7190101511        1.6627381610
 C          8.4672152611       -4.1615249628        1.6449776642
 C          9.1539524865       -4.2584610066        0.4484791323
 C          8.5411001756       -3.9217442502       -0.7538720663
 C          9.3022884097       -4.0102060787       -2.0402117495
 C          7.2240304830       -3.4877756881       -0.7313758293
 B         -2.6386997516       -1.7861435697       -0.5293544680
 C         -2.9821542769       -3.2425581512       -0.9040594238
 C         -2.0558435518       -4.2125121730       -1.3108306889
 C         -2.4023966722       -5.5208432719       -1.5486921757
 C         -3.7233437370       -5.9356722535       -1.3741186466
 C         -4.0981347081       -7.3711857485       -1.5849135800
 C         -4.6702818374       -4.9975754614       -1.0246719642
 C         -4.3331854433       -3.6508044271       -0.8265859201
 N         -5.3454810768       -2.7511180552       -0.5467997925
 C         -6.6886414243       -3.2216654826       -0.4834815874
 C         -7.3868750965       -3.5065102996       -1.6497492119
 C         -8.7006916698       -3.9327168600       -1.5693259763
 C         -9.3172596374       -4.0636361284       -0.3380665985
 C         -8.6298599123       -3.7774336398        0.8364495712
 C         -9.3137486670       -3.8935297380        2.1633485313
 C         -7.3096010455       -3.3604834934        0.7506001435
 C         -5.1533820592       -1.3974088439       -0.3769286355
 C         -6.2533334961       -0.5521698250       -0.2373785532
 C         -6.0632035980        0.8009677580        0.0042303873
 N         -7.1721036791        1.6307432167        0.2114918916
 C         -7.1546557791        2.9444022186       -0.2578996831
 C         -7.7604324151        3.9710467176        0.4661526220
 C         -7.7144486586        5.2681289789       -0.0066134806
 C         -7.0636833299        5.5651820571       -1.1909368490
 C         -6.4555754640        4.5534708156       -1.9265717619
 C         -5.7788713459        4.8610377648       -3.2288421662
 C         -6.5112127769        3.2526516382       -1.4573029322
 C         -8.2613749007        1.1447626775        0.9392409383
 C         -8.0627902400        0.2845475833        2.0184370375
 C         -9.1469867979       -0.1967159656        2.7251346418
 C        -10.4341036375        0.1706672398        2.3759523928
 C        -10.6509268960        1.0318442184        1.3048453024
 C        -12.0466710802        1.4326814953        0.9330426289
 C         -9.5626983056        1.5079104238        0.5936890084
 C         -4.7793180916        1.3337131260        0.0550872654
 C         -3.6846161885        0.5083549972       -0.1663405646
 C         -3.8430390611       -0.8777859687       -0.3574328945
 N         -2.4120762373        1.0538244722       -0.1635158907
 C         -2.3125469413        2.4594209773       -0.2369305720
 C         -2.6126170947        3.1399126510       -1.4175087910
 F         -3.0264756263        2.4301845264       -2.4830180921
 C         -2.4938308456        4.5114981070       -1.5368009875
 C         -2.0567332754        5.2498276679       -0.4512165907
 C         -1.7548623878        4.6194129067        0.7431753233
 C         -1.8946422041        3.2474203750        0.8369212558
 F         -1.6084621254        2.6479544645        2.0091174238
 C          9.5522849087        1.2942213570       -0.1254548683
 H         12.2189801666        0.5732448938        0.7389908387
 H         12.8348675910        0.9058544469       -0.8813329655
 H         12.1044238058        2.2008345261        0.0793597920
 H         11.4551230707       -0.3808997932       -2.3500469016
 H          9.2242233435       -0.9252071164       -3.2416927875
 H          7.2011306501       -0.0575629210       -2.1428053327
 H          5.8510375841        2.2813245578        2.1895784436
 H          5.7844212992        4.5769338901        3.0594576976
 H          7.0170515180        6.3802687534        1.9170398951
 H          8.8431755851        5.8913640501       -1.3053218740
 H          7.9754605751        7.1017373102       -0.3479844469
 H          9.4718125664        6.4039663771        0.2612429312
 H          8.3732849395        3.5808823058       -1.0035369225
 H          7.1511286103       -1.1029924890        0.4173636129
 H          4.6469859502        2.2807833047       -0.1867934702
 H          1.4662171279        5.2087165360       -1.4605003801
 H          2.0672964471        6.2482361992        0.7155714331
 H          2.8236542870        4.8045719359        2.5917912287
 H         -0.0144310399        2.0333236675       -0.0036419273
 H         -0.0741834423       -2.8364561857       -0.1272797164
 H          0.8240028517       -4.0107816493        1.1358727816
 H          1.3879559378       -6.3563905402        1.4552000422
 H          3.2893715396       -8.1237372883        0.5020922311
 H          4.8897856774       -7.6935980066        1.1206033572
 H          3.5228384603       -7.8768180830        2.2283781245
 H          5.4842235495       -5.4713903032        0.7320999142
 H          6.6105541420       -3.6330686755        2.5903530438
 H          8.9560211090       -4.4261986164        2.5707253359
 H         10.1794667639       -4.5978274537        0.4432913436
 H         10.0413485890       -3.2104039147       -2.0851977971
 H          8.6369013288       -3.9127767448       -2.8939752705
 H          9.8305105966       -4.9591122742       -2.1103137241
 H          6.7239087432       -3.2147374555       -1.6489203877
 H         -1.0313049933       -3.9145690881       -1.4638926832
 H         -1.6545262626       -6.2360837138       -1.8603362516
 H         -3.8828920698       -7.6713535535       -2.6100875957
 H         -5.1557932973       -7.5320214736       -1.3901098255
 H         -3.5188496657       -8.0142707319       -0.9232460775
 H         -5.6954142504       -5.3144752395       -0.9072443872
 H         -6.8956675991       -3.3950607202       -2.6047966883
 H         -9.2471151721       -4.1586100709       -2.4728898936
 H        -10.3454342150       -4.3905176180       -0.2842849100
 H         -9.9422951455       -4.7802521228        2.1981654935
 H         -9.9495048815       -3.0229228664        2.3232653819
 H         -8.5891531225       -3.9406976847        2.9717013468
 H         -6.7526721806       -3.1271886774        1.6461088467
 H         -7.2597579450       -0.9310288554       -0.3027009328
 H         -8.2555415108        3.7467713739        1.3989242607
 H         -8.1827726023        6.0579331174        0.5624287362
 H         -7.0280521432        6.5836126253       -1.5487548094
 H         -5.0860218135        4.0693977981       -3.5016069555
 H         -6.5214541788        4.9485688696       -4.0221794258
 H         -5.2431383197        5.8065064317       -3.1707433010
 H         -6.0479037504        2.4597589652       -2.0246517036
 H         -7.0590301722        0.0043747366        2.2980517257
 H         -8.9828288093       -0.8540541123        3.5666744060
 H        -11.2772863392       -0.2055875018        2.9368821919
 H        -12.6609236828        0.5516965888        0.7526099247
 H        -12.0497140689        2.0504330717        0.0387516815
 H        -12.5050491332        1.9961651270        1.7452955701
 H         -9.7162622034        2.1703442979       -0.2458645203
 H         -4.6567539261        2.3826634315        0.2754187963
 H         -2.7330581711        4.9807625122       -2.4766098212
 H         -1.9534108912        6.3194952226       -0.5343869101
 H         -1.4181020395        5.1732890874        1.6045392979
 H          9.6384794050        1.9181527878        0.7524693091
