  164
       -256.89964601
 C         12.0443389445        1.0966730933       -0.3746088008
 C         10.6794976046        0.7367549059       -0.8786323209
 C         10.5343471740       -0.1591738840       -1.9333834156
 C          9.2735210122       -0.5034409541       -2.3879333096
 C          8.1446296325        0.0322861695       -1.8012142093
 C          8.2710054767        0.9281357286       -0.7395718057
 N          7.1356799134        1.4679523703       -0.1291815737
 C          7.1193194493        2.8008826690        0.2839380025
 C          6.4058542631        3.1861225161        1.4195923977
 C          6.3764211698        4.5140755737        1.7957251427
 C          7.0613505225        5.4702991815        1.0665869534
 C          7.7896912840        5.1018848742       -0.0598565134
 C          8.5195517118        6.1360497062       -0.8630258592
 C          7.8069671143        3.7719491067       -0.4444363445
 C          6.0075466193        0.6635689311        0.0529369979
 C          6.1598665313       -0.6938637846        0.3276503729
 C          5.0382009776       -1.5140976230        0.4432906708
 C          3.7370060511       -0.9741782480        0.3788141361
 C          3.6132804116        0.4139396468        0.1677835966
 C          4.7328604169        1.2138193863       -0.0468391277
 N          2.3562716076        0.9892129224        0.1497444958
 C          2.2901252712        2.4004812435        0.2025803945
 C          1.8781730418        3.1855853890       -0.8845351335
 F          1.5700455684        2.5634779523       -2.0459684836
 C          1.7749463012        4.5557317404       -0.8141503888
 C          2.1058725368        5.2062605283        0.3701388537
 C          2.5386969824        4.4690867560        1.4677484155
 C          2.6199508314        3.0990210673        1.3725559024
 F          3.0261490043        2.3891709878        2.4487077757
 C          1.1799081129        0.2707722871        0.1426298037
 C         -0.0257914344        0.9593397633        0.0918965969
 C         -1.2451019123        0.2992061360       -0.0038384319
 C         -1.2720354061       -1.1167603997       -0.1599779961
 C         -0.0544587296       -1.7743573346        0.0212659468
 C          1.1775051702       -1.1515927868        0.2283984088
 B          2.5143898394       -1.8573956696        0.5190677702
 C          2.8161890788       -3.3154625396        0.9129166528
 C          1.8599087120       -4.2659520212        1.2980615673
 C          2.1809187529       -5.5739775302        1.5792314763
 C          3.5021592426       -6.0116799744        1.4783512311
 C          3.8483948774       -7.4444154851        1.7465234777
 C          4.4778915742       -5.0922913333        1.1465021728
 C          4.1660720545       -3.7490960207        0.9008196765
 N          5.1998415558       -2.8680608282        0.6417024183
 C          6.5347348789       -3.3638718115        0.6139539203
 C          7.2163781582       -3.6174267719        1.7967015202
 C          8.5233588751       -4.0694202717        1.7437828061
 C          9.1467149073       -4.2600595450        0.5241131091
 C          8.4742619724       -4.0076019469       -0.6673464395
 C          9.1649071917       -4.2058597546       -1.9808170394
 C          7.1629997232       -3.5603302084       -0.6090658487
 B         -2.6228476171       -1.7785426714       -0.4889115117
 C         -2.9528087948       -3.2128285114       -0.9432341999
 C         -2.0134632572       -4.1713024184       -1.3500205650
 C         -2.3595091333       -5.4621690411       -1.6764434451
 C         -3.6909106666       -5.8738601160       -1.6023289383
 C         -4.0642737488       -7.2909445461       -1.9135797071
 C         -4.6501031824       -4.9435293798       -1.2538888914
 C         -4.3119765423       -3.6157060286       -0.9627177679
 N         -5.3293797757       -2.7202288811       -0.6891634977
 C         -6.6760191274       -3.1826034120       -0.7186381298
 C         -7.3225771488       -3.3846757963       -1.9306858523
 C         -8.6407960788       -3.8060757454       -1.9355655373
 C         -9.3100117383       -4.0168756117       -0.7438884194
 C         -8.6730925090       -3.8156645634        0.4766512450
 C         -9.4127612288       -4.0350114896        1.7596431180
 C         -7.3504569153       -3.3994683453        0.4761611729
 C         -5.1388997470       -1.3804061106       -0.4290247782
 C         -6.2426756126       -0.5398512013       -0.2900135490
 C         -6.0636249214        0.8002770064        0.0461493620
 N         -7.1792864024        1.6151089241        0.2606751876
 C         -7.1464184860        2.9608690555       -0.1057951513
 C         -7.8150499103        3.9208216768        0.6542802955
 C         -7.7582724191        5.2513402260        0.2881197667
 C         -7.0350491082        5.6470357932       -0.8232495043
 C         -6.3627192754        4.7029027103       -1.5925150868
 C         -5.6025633813        5.1198432677       -2.8151109314
 C         -6.4290724981        3.3686845708       -1.2313352472
 C         -8.3153479386        1.0698784752        0.8645594536
 C         -8.1893492690        0.1286592955        1.8862976312
 C         -9.3185496215       -0.4146870605        2.4654705954
 C        -10.5794740805       -0.0320825883        2.0436897043
 C        -10.7244130695        0.9096925425        1.0293203157
 C        -12.0917326087        1.3279477586        0.5801755598
 C         -9.5907276613        1.4498881175        0.4469212192
 C         -4.7787039248        1.3189327031        0.1783584305
 C         -3.6748343171        0.5009398445       -0.0501184451
 C         -3.8269461625       -0.8740435621       -0.3229793028
 N         -2.4054484122        1.0426612743        0.0146512764
 C         -2.2969243774        2.4528646441        0.0529726087
 C         -2.5205446771        3.2333646772       -1.0889908406
 F         -2.8930651682        2.6098004231       -2.2295525329
 C         -2.3657372145        4.6005086010       -1.0951033446
 C         -1.9716719442        5.2495451756        0.0706318560
 C         -1.7514128647        4.5159396492        1.2321215381
 C         -1.9196596203        3.1508477515        1.2099575273
 F         -1.7092884201        2.4436924411        2.3441028618
 C          9.5458382367        1.2708818371       -0.2900383060
 H         12.4638630919        0.2663287787        0.1939169243
 H         12.7171429677        1.3053262061       -1.2043617643
 H         12.0025630681        1.9683951849        0.2737070805
 H         11.4126975236       -0.5811583590       -2.3995003528
 H          9.1671623455       -1.1867479585       -3.2176294289
 H          7.1619837246       -0.2298821171       -2.1616216212
 H          5.8807161807        2.4441243823        1.9995352316
 H          5.8213638981        4.8029069905        2.6760914042
 H          7.0355569851        6.5057719172        1.3719143039
 H          9.2671175005        5.6746719397       -1.5039957120
 H          7.8178982920        6.6818238696       -1.4948691163
 H          9.0086744099        6.8556273948       -0.2094433540
 H          8.3554535581        3.4761786495       -1.3265790083
 H          7.1546358093       -1.0927790599        0.4338306889
 H          4.6290887528        2.2585920037       -0.2926095187
 H          1.4428150533        5.1054632490       -1.6794935981
 H          2.0298474374        6.2780328220        0.4355245720
 H          2.8018840521        4.9513703151        2.3946353171
 H         -0.0148907362        2.0347475882        0.1253005796
 H         -0.0654011725       -2.8480960488       -0.0017811406
 H          0.8337022921       -3.9519409281        1.3957213776
 H          1.4092732807       -6.2727941653        1.8701722709
 H          3.2889281061       -8.1010685868        1.0809176618
 H          4.9111211561       -7.6231370757        1.6009991165
 H          3.5875311714       -7.7114529470        2.7705582688
 H          5.5025692793       -5.4246620647        1.0842933485
 H          6.7194245580       -3.4602707106        2.7422277395
 H          9.0581580262       -4.2689062492        2.6602171271
 H         10.1687212700       -4.6080232600        0.4914094169
 H          8.4686514406       -4.0933643180       -2.8078957143
 H          9.6144576818       -5.1961021252       -2.0315220190
 H          9.9613215971       -3.4707692926       -2.0942013373
 H          6.6164310198       -3.3513644603       -1.5168616864
 H         -0.9797047220       -3.8773644874       -1.4273785161
 H         -1.5999098061       -6.1682154032       -1.9812369130
 H         -3.5391645276       -7.9759404078       -1.2483956579
 H         -3.7818041536       -7.5412798476       -2.9359838217
 H         -5.1345280930       -7.4468572287       -1.8003246526
 H         -5.6823341551       -5.2550577164       -1.2127740896
 H         -6.7899434055       -3.2122826317       -2.8538390101
 H         -9.1482075373       -3.9653623154       -2.8751213613
 H        -10.3403822320       -4.3406084761       -0.7559358380
 H         -9.8843041554       -5.0163299644        1.7667855908
 H        -10.1966123148       -3.2855577624        1.8672559663
 H         -8.7431509899       -3.9607230256        2.6126364352
 H         -6.8306621746       -3.2313314031        1.4076663466
 H         -7.2453480563       -0.9100924562       -0.4223979530
 H         -8.3664343729        3.6183710988        1.5315947141
 H         -8.2757573797        5.9889335063        0.8838232408
 H         -6.9913719845        6.6905748974       -1.0976692984
 H         -6.2903582704        5.2827840198       -3.6452869464
 H         -5.0705448396        6.0521213565       -2.6363064374
 H         -4.8927511611        4.3514914244       -3.1091174871
 H         -5.9176968292        2.6288700235       -1.8274846912
 H         -7.2063408541       -0.1635203610        2.2216639224
 H         -9.2123111850       -1.1347222651        3.2635907788
 H        -11.4584217565       -0.4588994257        2.5043315759
 H        -12.0337296408        1.9933140986       -0.2773693246
 H        -12.6093235142        1.8469712221        1.3865690916
 H        -12.6875970987        0.4575303445        0.3096555846
 H         -9.6867667373        2.1757004508       -0.3473169748
 H         -4.6545938932        2.3515891036        0.4631272703
 H         -2.5407080450        5.1488071516       -2.0056213351
 H         -1.8391275055        6.3178110359        0.0754188195
 H         -1.4520789414        4.9972802904        2.1486529299
 H          9.6417045266        1.9622634853        0.5344143637
