53
 energy: -85.922688674408 gnorm: 0.000061043803 xtb: 6.7.1 (edcfbbe)
C            8.82642133367741       -0.87885973000062       -0.26159555026177
C            8.02420126701248       -1.53176813259878       -1.18736632685576
C            6.65058794709622       -1.45473662813232       -1.09791179635530
C            6.03657272077377       -0.70813398368133       -0.08062417851767
C            4.59317161368811       -0.61363584616860       -0.00441277855886
C            3.75518160926455       -1.68858268920808       -0.43402570942112
C            2.39619593361511       -1.60189254031591       -0.44191989617374
C            1.67803834973904       -0.44624271559528       -0.02384207761381
C            0.25849871227655       -0.38659899288004       -0.01690073800673
C           -0.54224834241174       -1.33738419542012       -0.70580196088489
C           -1.90779114062219       -1.26036005675680       -0.71138989252358
C           -2.57381577905267       -0.22861382344945       -0.02987080586421
N           -3.95953281413749       -0.15040564028680       -0.03623899627962
C           -4.83230420735100       -1.20331157029747        0.17494853230503
C           -4.56085181089659       -2.52808420867265        0.49181976384530
C           -5.63407184131303       -3.37891462727873        0.68745030294173
C           -6.94710598368517       -2.92667153913930        0.58803064507865
C           -7.22403381563376       -1.59980202627354        0.30595024781842
C           -6.16391714102014       -0.73030410170035        0.10293035642486
C           -6.08197715066305        0.68129121196250       -0.17147194977959
C           -7.03479507628979        1.66731792018037       -0.37420588305760
C           -6.60622875920952        2.95322411086910       -0.65618192634988
C           -5.24966300716818        3.25069999652944       -0.75562262090883
C           -4.28154432754642        2.28198182512112       -0.55994768393819
C           -4.70468272458232        0.99734739566080       -0.24366237179281
C           -1.80373070332358        0.72023028128463        0.66295347219032
C           -0.43925185725785        0.63773195091214        0.67619460480982
C            2.50352496507828        0.64629544447310        0.41760415829922
N            2.09700667803919        1.86180640489839        0.77213393211699
N            3.00656205975957        2.68464457676439        1.12879221901775
S            4.55097272704342        2.04510061038007        0.98641440382821
C            3.92111646223263        0.51754535669369        0.44602026813650
C            6.86201367962889       -0.05921698952046        0.84805616777976
C            8.23584371838910       -0.14707474684237        0.75795880479962
H            9.90192652851897       -0.94257380077589       -0.33290027692878
H            8.47728858511769       -2.09922899069162       -1.98754869962271
H            6.03940599882777       -1.94182794439978       -1.84298947317638
H            4.22931328706632       -2.61096616951674       -0.73131898699481
H            1.83751403125059       -2.47377169972660       -0.74337852269242
H           -0.07107215974477       -2.11153018780011       -1.28953784075172
H           -2.48508643385652       -1.96626717439221       -1.28999902535086
H           -3.54824318197374       -2.88377536446135        0.60028666606685
H           -5.44791031537497       -4.41454324147269        0.92999431117443
H           -7.75895657330679       -3.62062910473371        0.74675266650788
H           -8.24215962887906       -1.24598528162488        0.25181291774962
H           -8.08701078648220        1.43347726713216       -0.32010663619238
H           -7.33209179830373        3.73692991573195       -0.81367465282438
H           -4.94469250698746        4.25802222379096       -0.99690738231050
H           -3.23454839240096        2.52004307333697       -0.66498467895197
H           -2.30264559478189        1.48899888116100        1.23384708345929
H            0.13407974699920        1.35694387896492        1.23968439673757
H            6.41644895735653        0.48500474339931        1.66767324993182
H            8.85163558820004        0.35407802086727        1.49068598738602
