53
 energy: -85.922679417645 gnorm: 0.000030420158 xtb: 6.7.1 (edcfbbe)
C            8.82680362893435       -0.88286694178567       -0.35414031604168
C            8.02290761341211       -1.62463188761615       -1.20882708772984
C            6.64952077389709       -1.53318428563047       -1.13055024944889
C            6.03641958606871       -0.68357217536805       -0.19655405289643
C            4.59352475484652       -0.57844861122008       -0.12886667150853
C            3.75248501488680       -1.68664812268559       -0.45709856831501
C            2.39343378716303       -1.60122118081570       -0.46244538139833
C            1.67793573580556       -0.41447508659312       -0.13803512782033
C            0.25847568355995       -0.35810534568939       -0.11233910558139
C           -0.54951160486045       -1.36256808792383       -0.71029779942206
C           -1.91536650988781       -1.29251896973575       -0.69409267363261
C           -2.57409462678953       -0.21569424414684       -0.07840588164960
N           -3.96013048505375       -0.14512032757637       -0.06192240157063
C           -4.82209891765380       -1.18373833331618        0.24369280256169
C           -4.53650564879892       -2.48034681569465        0.65164850258133
C           -5.60053106794694       -3.31970642065557        0.92981095428795
C           -6.91801965301655       -2.88229684710188        0.82321073576356
C           -7.20850202019983       -1.58080890880416        0.45101471272269
C           -6.15779617592002       -0.72363729728404        0.16397911379842
C           -6.09010046303668        0.66443836330350       -0.21442678598589
C           -7.05291163823300        1.62890181812691       -0.46742146713726
C           -6.63812155310242        2.89333526479252       -0.84935328738782
C           -5.28584308835886        3.18852369772267       -1.00020548584160
C           -4.30800520545206        2.24084855495738       -0.75574146695425
C           -4.71647436884985        0.98077845404145       -0.33773451222937
C           -1.79635586895610        0.78736384015022        0.52365504161455
C           -0.43132899202960        0.71390067062986        0.51305116701624
C            2.50580356545779        0.71411207499606        0.19404522890493
N            2.09952462408557        1.95660613188103        0.43876511555628
N            3.01089397648691        2.80972497356200        0.70932922436689
S            4.55497659170892        2.16148811833073        0.61157945188644
C            3.92372702468666        0.58976148524639        0.22026977499464
C            6.86402112023968        0.05421175314137        0.66159317678786
C            8.23757118619691       -0.04680827301358        0.58268911021476
H            9.90211832763634       -0.95821909090963       -0.41636208762577
H            8.47460321759310       -2.27373499198091       -1.94518655018241
H            6.03857689930951       -2.09254336692117       -1.82306916817871
H            4.22419192427670       -2.63188106563508       -0.67587484649133
H            1.83284715066708       -2.49596778631474       -0.68245245991562
H           -0.08467812406948       -2.17642372000844       -1.24294708665895
H           -2.49955874425044       -2.04306026601737       -1.20561778219684
H           -3.51987783590507       -2.82244250793859        0.76610781333868
H           -5.40344040351571       -4.33411057403875        1.24316182857139
H           -7.72250633282840       -3.56666929908524        1.04749077837400
H           -8.22961427519802       -1.23668158446247        0.39121523401525
H           -8.10228759370918        1.39488618936909       -0.37379597116736
H           -7.37191135770234        3.66039577962430       -1.04691987826039
H           -4.99195507016619        4.17710466622528       -1.31998639418681
H           -3.26500995362903        2.47519671934057       -0.90096210556370
H           -2.28853167238028        1.59462816450162        1.04509502781424
H            0.14872100028182        1.47778083345577        1.00645825712608
H            6.42041487387040        0.68042556573761        1.42146235422940
H            8.85416792999035        0.52502408489944        1.26095045412415
