53
 energy: -85.997797589126 gnorm: 0.000032677615 xtb: 6.7.1 (edcfbbe)
C            8.81611163053580       -0.93292271318529       -0.11283470440539
C            8.04582301714036       -1.68432184247647       -0.98557367180393
C            6.66736787919305       -1.58151298822075       -0.96198987336594
C            6.03854719297280       -0.71727357680361       -0.06738446536597
C            4.57371261841818       -0.61093624001691       -0.04879327515916
C            3.75842110777994       -1.73058435392417       -0.15362663132444
C            2.36960009499538       -1.64768371829147       -0.14276006366433
C            1.69801410790404       -0.43973152526904       -0.02958999018025
C            0.23682972114545       -0.35817528223995       -0.02405940200115
C           -0.52301042031464       -1.21607552442650       -0.82077389331125
C           -1.90061070114893       -1.14453612087726       -0.82394250645922
C           -2.55595153582723       -0.21947551961439       -0.01424266756369
N           -3.95486699614034       -0.14842724643374       -0.01117493077910
C           -4.81842047065290       -1.21404055107803        0.15346562356151
C           -4.53668533393864       -2.55040794061381        0.40078279533706
C           -5.60174415874733       -3.41718520768578        0.55703436013154
C           -6.91982285782230       -2.97140142671333        0.48046900236599
C           -7.20645146257260       -1.63894164794570        0.25824892654331
C           -6.15254713807523       -0.74832407367163        0.09763156503315
C           -6.08084740274247        0.67003704804632       -0.11979124007129
C           -7.04011298928967        1.66190884424618       -0.28076004931583
C           -6.62051569867386        2.95859425660249       -0.50274791319030
C           -5.26414349431276        3.26951670158572       -0.57864095655618
C           -4.29124300084938        2.30043428594691       -0.42235442778785
C           -4.70669927233393        0.99932680437698       -0.17535904853417
C           -1.80505071343950        0.63643000718447        0.78846726382333
C           -0.42716977449684        0.57170944219245        0.77614993408453
C            2.50080053376757        0.71282846298090        0.07699260579621
N            2.07905086674410        1.99842579119157        0.15743890684126
N            2.98278293244479        2.85310920323367        0.20879901198223
S            4.53826307249594        2.22706633110886        0.16706812783357
C            3.91619063466124        0.61466819589047        0.06870215280512
C            6.82157648288684        0.03402584341981        0.80600902537825
C            8.19967670732349       -0.07604762958579        0.78412431197158
H            9.89281695460189       -1.01487793015371       -0.13138506086801
H            8.52136435636669       -2.35168217564835       -1.68954929737716
H            6.07157048218463       -2.15638410986907       -1.65589880358228
H            4.22233786820350       -2.70291695048157       -0.22513408468820
H            1.79765992738058       -2.56109730949752       -0.20249918684645
H           -0.02853835703350       -1.92111262060664       -1.47212049202768
H           -2.47753300523024       -1.79182138756852       -1.46752778064050
H           -3.51935626547174       -2.90257430285906        0.48055109790709
H           -5.40814245478499       -4.46292461184199        0.74753592968902
H           -7.72536487656234       -3.68014189367483        0.60602079572667
H           -8.22789583280955       -1.29122699763035        0.21494007555449
H           -8.09137643708622        1.41857077561428       -0.23813826876051
H           -7.35027965287265        3.74515713573676       -0.62827486381934
H           -4.96594131965211        4.29047932919803       -0.76816333179028
H           -3.24371423937751        2.54966901591241       -0.50044130420590
H           -2.30910277936661        1.34224923491623        1.43138802001625
H            0.14462687233256        1.23806695406397        1.40256648511574
H            6.34798889135783        0.69080850822800        1.52148961289301
H            8.79364532340969        0.50863031789539        1.47123554805888
