69
 energy: -107.496695522637 gnorm: 0.000104696427 xtb: 6.7.1 (edcfbbe)
C            8.55994490846146       -0.20312873619111        1.77800234571757
C            7.29108086500964       -0.41713689624438        1.01690997233348
C            6.17842506758083        0.32399771339801        1.16040410864183
C            5.01539803461851        0.03260394360748        0.37033762800132
C            3.83912106261946        0.75382565442644        0.46683078352182
C            2.72854420582064        0.41236625807620       -0.31646904003719
N            1.54109692483504        1.12481711622192       -0.20707788505531
C            1.42560094999650        2.51943851663547       -0.18236661966690
C            2.40404250797397        3.47850234447531       -0.29866029834035
C            2.01131486116586        4.82157380377375       -0.27445477786409
C            0.67489544051536        5.17281923894888       -0.14190483623982
C           -0.31878750528799        4.21253604896149       -0.05197153247739
C            0.04894400017610        2.86533121358990       -0.08701871872903
C           -0.67943488255037        1.64851202746889       -0.07029269612757
C           -2.02556872470684        1.32402217998460       -0.00971801391751
C           -2.41456316089858       -0.01862734632094        0.01920292554633
C           -1.44550228045819       -1.07057871357660        0.02055008373970
C           -0.09846676522701       -0.74108830981573       -0.05849605067260
C            0.29158059970179        0.58369452520966       -0.13691913067571
C           -1.84412774414361       -2.52535860728525        0.11923070496089
C           -1.29703424460698       -3.27623965489244       -1.11113432741272
C           -1.24119625406353       -3.11849053400414        1.40812672394042
C           -3.34430336260587       -2.70853459717903        0.16290633620536
C           -3.88422527237620       -3.98473270531300        0.24010107157084
C           -5.24946017584833       -4.20198529118082        0.27181142896794
C           -6.11516749995873       -3.11977594875214        0.22151480735871
C           -5.60968636827470       -1.84180339137670        0.14938686533938
C           -4.22582378411257       -1.61783408606536        0.12593927761689
N           -3.74831090933002       -0.32209481955876        0.06573557596396
C           -4.69393089753264        0.74698420266127        0.05512062154910
C           -5.18377642606907        1.24720442682643        1.25565935556936
C           -6.09950493111209        2.28439107096373        1.24031499792245
C           -6.52485338242857        2.82056532858041        0.03501471512358
C           -6.03324021518692        2.31915504103156       -1.16042022524125
C           -5.11737981949457        1.28207332471637       -1.15521232903486
C            2.82163782992012       -0.66818549272100       -1.22224417012874
C            3.98089555244363       -1.38021631651724       -1.33211555303769
C            5.10293037335176       -1.05699822797647       -0.53659546637447
C            6.30943055690454       -1.82682487461555       -0.65493314427495
O            6.48531669727521       -2.77772209534902       -1.39030732886740
O            7.37933284075769       -1.45186387336449        0.15215191331708
H            8.81417102669435       -1.10656752830852        2.32997601651228
H            8.45727722267979        0.62808088051316        2.46838487979038
H            9.37494905425327       -0.00220585611130        1.08445731005473
H            6.15188901782869        1.14014537779647        1.86343074067485
H            3.75941808377043        1.55482339346432        1.18661089175788
H            3.44301674049410        3.21660816934469       -0.42416536499055
H            2.76254896624531        5.59040517154201       -0.36499618075961
H            0.40505528180922        6.21868197635298       -0.11907809520021
H           -1.35740039357093        4.49196224425153        0.03789953367101
H           -2.76410177828319        2.10847256103634        0.01842600485939
H            0.65125836636495       -1.51546719456979       -0.04305486867900
H           -1.55738774178735       -4.32990269790263       -1.07299721557580
H           -1.71510215899216       -2.85098736399926       -2.02155899903423
H           -0.21516947165712       -3.19701946740586       -1.15914767444830
H           -1.47697856149911       -4.17495226012998        1.49819041273715
H           -0.16071788233168       -3.00872821440080        1.41017300362487
H           -1.64080395494815       -2.60018173269025        2.27771405942015
H           -3.22540197620901       -4.83837802423171        0.27632180217022
H           -5.63545512674648       -5.20767280131042        0.33192948408308
H           -7.18328321167842       -3.27305341106354        0.23882461786746
H           -6.28584919421044       -1.00222695604038        0.10913909916956
H           -4.84290336292778        0.82172131153767        2.18766357116598
H           -6.47994742222890        2.67535180774744        2.17170113525410
H           -7.23872910927858        3.62987456115273        0.02704561000894
H           -6.36304842070520        2.73649084513379       -2.09956608367520
H           -4.72496296338914        0.88393651381250       -2.07894935717642
H            1.97855655871636       -0.88514816485379       -1.86149812478303
H            4.07842290352705       -2.19595897831596       -2.03123675509346
