69
 energy: -107.585775944380 gnorm: 0.000056359615 xtb: 6.7.1 (edcfbbe)
C            8.53640109230232       -0.21272350444052        1.85890338500024
C            7.28036246521744       -0.41795685162005        1.07858727435728
C            6.16050804054843        0.31717798484884        1.20762268742006
C            5.01615010277880        0.02010682348538        0.39593979124994
C            3.82305179475008        0.73645396082679        0.48228051642491
C            2.74542765779629        0.40808276906048       -0.32678251530684
N            1.55640200989554        1.12678171134528       -0.24166290479571
C            1.43249354532090        2.50456002374622       -0.21399593734806
C            2.40827408432572        3.48489727506487       -0.31874084277902
C            2.00306374215145        4.80649834721174       -0.30053256646988
C            0.65925276725992        5.15461795358244       -0.19205376372001
C           -0.31992792246005        4.18364388578422       -0.11917716001762
C            0.06337263938802        2.85005279708110       -0.13551645849120
C           -0.66911770160594        1.61473669112558       -0.10867216768572
C           -2.01501096431797        1.30937138200167       -0.01580718750550
C           -2.41769381403717       -0.02526297209161        0.00610954376303
C           -1.46208301520458       -1.05833786387586       -0.01965740090251
C           -0.11432634860763       -0.74361435510823       -0.10618913322349
C            0.28186674660844        0.57947004746340       -0.18080254280460
C           -1.85711182834814       -2.52157237678249        0.06018136425999
C           -1.33327207749041       -3.24278716178219       -1.19576834233039
C           -1.22757601667798       -3.13263798026944        1.32583837987545
C           -3.36099402226554       -2.70499424165198        0.13113616866568
C           -3.89205126472294       -3.98574406724330        0.19516067570965
C           -5.25450638766798       -4.21386659627168        0.24944603753193
C           -6.12159628553997       -3.13623184689737        0.23239633603032
C           -5.62129550048993       -1.85312710339565        0.17170633833676
C           -4.24312846078858       -1.61965421488539        0.13009450436146
N           -3.77063459062801       -0.32048984458592        0.07812814889603
C           -4.70398681090445        0.75346106784672        0.09736306367192
C           -5.22599270279007        1.19762006780816        1.30575075358705
C           -6.13381542235715        2.24155124751699        1.32144564500003
C           -6.51959064867962        2.84543094097047        0.13613084291829
C           -5.99765922271639        2.40391694945053       -1.06851943573106
C           -5.09160575221633        1.35860926244698       -1.09154741346446
C            2.85420536685001       -0.65532358348314       -1.23755324551280
C            4.02071841962417       -1.37395356767516       -1.32345302666769
C            5.11182717896682       -1.04911054683941       -0.51287491590649
C            6.34551104337895       -1.81951065134922       -0.61755204591070
O            6.52773410043370       -2.75138417292738       -1.36107983696386
O            7.37768225123356       -1.44401585092961        0.20310167915695
H            8.77429197754083       -1.11654730781030        2.41738898040270
H            8.42900399941784        0.62054782901381        2.54555014183703
H            9.36466333473216       -0.02067512029404        1.17893099379401
H            6.11491630397218        1.12804061770509        1.91479070029801
H            3.73472671193286        1.53726467050611        1.20076807876723
H            3.45170758860004        3.23090478213528       -0.42856898958539
H            2.74648942313555        5.58620821256208       -0.37725223941715
H            0.38340883431314        6.19847313655552       -0.17780002018717
H           -1.36447404521752        4.44958953775169       -0.05704926643582
H           -2.74215499123410        2.10300909660016        0.04609750339740
H            0.62678505892279       -1.52689050252220       -0.10094213128818
H           -1.76262171623950       -2.79021181462272       -2.08773833539507
H           -0.25081851034273       -3.17613815076287       -1.26190195734424
H           -1.60614251447616       -4.29402945676119       -1.18099327336404
H           -1.48435051136784       -4.18436035043322        1.41567904274892
H           -0.14445098707115       -3.04813850644576        1.30374935318607
H           -1.59498464993473       -2.61307060675157        2.20888586296946
H           -3.22756579140355       -4.83668657901481        0.20307273859958
H           -5.63353667989741       -5.22315494474905        0.29999661428631
H           -7.18970971707632       -3.29179477822318        0.26528983155570
H           -6.30334826040574       -1.01685798260830        0.15357784950133
H           -4.91799552367484        0.71828862655467        2.22327057629105
H           -6.53961507670012        2.58533167888572        2.26129097095862
H           -7.22762727316066        3.66045537860261        0.15121224763781
H           -6.29844345337360        2.87336028107923       -1.99333799323665
H           -4.67742465969199        1.00590908737601       -2.02451990360648
H            2.02101755470373       -0.88092017966801       -1.88491052644977
H            4.12768749224290       -2.19116982871378       -2.02012783208327
