  42
        -72.81398533
 N          5.1502114140        2.8285620539       -1.5371446805
 C          5.3930398243        1.8795984411       -0.9385020971
 C          5.7846225317        0.7441864718       -0.1975524504
 C          7.1777846063        0.7032647299        0.0521193177
 N          8.3056928120        0.6682060522        0.2528962034
 C          4.9924797067       -0.2525475802        0.2775788582
 C          3.5735721718       -0.4159777767        0.1379510947
 C          2.7376589306        0.4352316381       -0.6012024490
 C          1.3829998278        0.2117139170       -0.6862057341
 C          0.7857991287       -0.8758788810       -0.0401437465
 C         -0.6504871015       -1.1419718613       -0.1618179232
 C         -1.0534243513       -2.4163965042       -0.5597260388
 C         -2.3809254036       -2.7165934486       -0.7708922452
 C         -3.3692745360       -1.7486695577       -0.5786247905
 C         -4.7480700715       -2.0229199231       -0.8095826615
 C         -5.6947341664       -1.0768665197       -0.6095876258
 C         -5.3474551439        0.2278011885       -0.1521185976
 C         -6.3082590734        1.2168232161        0.0661546414
 C         -5.9421954307        2.4720227262        0.5169151303
 C         -4.6148161030        2.7702383329        0.7633225791
 C         -3.6199638543        1.8128998038        0.5560039134
 C         -2.2453416291        2.0746340851        0.8207852371
 C         -1.2927515768        1.1381178811        0.6010686726
 C         -1.6201704114       -0.1506629338        0.0842146410
 C         -2.9879120937       -0.4576364756       -0.1350853796
 C         -3.9828157317        0.5263167261        0.0882048075
 C          1.6001027411       -1.7464375518        0.6848049115
 C          2.9518286150       -1.5084585922        0.7670669342
 F          3.7057198330       -2.3612970185        1.4900046792
 H          5.4957198724       -1.0308305227        0.8401161159
 H          3.1683251160        1.2764288535       -1.1191913516
 H          0.7718440871        0.8716346913       -1.2831887662
 H         -0.2989266617       -3.1685660550       -0.7414673226
 H         -2.6657541281       -3.7058338434       -1.0982496490
 H         -5.0179380342       -3.0120750521       -1.1510309202
 H         -6.7382811839       -1.2927334738       -0.7890664804
 H         -7.3477835711        0.9902698359       -0.1220233515
 H         -6.6997269028        3.2243669363        0.6804952315
 H         -4.3350957526        3.7507287024        1.1208547704
 H         -1.9772552803        3.0449529909        1.2139975470
 H         -0.2610710522        1.3535505445        0.8373412800
 H          1.1802920073       -2.5954456956        1.2021082721
  42
        -72.81391679
 N          6.1158477525        0.4398833773       -2.7623978797
 C          6.0129404208        0.3948694257       -1.6197805273
 C          5.9836902947        0.3567144156       -0.2092909064
 C          7.2577747874        0.5648356225        0.3724503775
 N          8.2881536051        0.7353197446        0.8446973089
 C          4.9084067447        0.1519774630        0.5956670717
 C          3.5400591183       -0.0748214420        0.2273537580
 C          3.0644905506       -0.1379642643       -1.0911431610
 C          1.7339153367       -0.3593027066       -1.3612892822
 C          0.8002375125       -0.5150245528       -0.3325105420
 C         -0.6098872385       -0.7747956499       -0.6377185540
 C         -0.9129703620       -1.8036063151       -1.5288897562
 C         -2.2163011784       -2.1542983780       -1.8036173288
 C         -3.2785994843       -1.4757756360       -1.2021198445
 C         -4.6362180851       -1.8301399472       -1.4490063635
 C         -5.6545184046       -1.1568631462       -0.8651208291
 C         -5.4062340299       -0.0615229545        0.0127248419
 C         -6.4416048941        0.6505321097        0.6209508019
 C         -6.1704562154        1.7143122608        1.4620686545
 C         -4.8654789086        2.0949485065        1.7145684514
 C         -3.7987606621        1.4091074071        1.1309085834
 C         -2.4426338269        1.7858450811        1.3477344672
 C         -1.4205071081        1.1000941686        0.7842946691
 C         -1.6530347454       -0.0371910691       -0.0450830695
 C         -2.9960023205       -0.3991955930       -0.3246788983
 C         -4.0645526485        0.3142332708        0.2728466797
 C          1.2514882100       -0.4662170334        0.9873841169
 C          2.5855967576       -0.2545240338        1.2438435450
 F          2.9880801659       -0.2224178366        2.5308117844
 H          5.1057125443        0.1619660919        1.6616329416
 H          3.7563029461       -0.0083430591       -1.9071540767
 H          1.3978901608       -0.3915545013       -2.3866460733
 H         -0.1021714143       -2.3576586887       -1.9801826263
 H         -2.4250271191       -2.9681765813       -2.4824868038
 H         -4.8308956825       -2.6559705447       -2.1182220415
 H         -6.6814746206       -1.4336230896       -1.0562985054
 H         -7.4640559538        0.3602666037        0.4265167950
 H         -6.9846549464        2.2537047175        1.9233033361
 H         -4.6594960207        2.9305338159        2.3678993377
 H         -2.2456657174        2.6462201099        1.9714307330
 H         -0.4028664879        1.4256655186        0.9418281946
 H          0.5718300916       -0.6173493624        1.8118821523
