  51
        -72.48737276
 C          4.8441154330       -0.2780515388        1.2976844707
 C          3.5626545755        0.4846896567        1.1399213594
 C          3.5022451719        1.8459637227        1.4068120040
 C          2.3181070075        2.5400744077        1.2588445868
 C          1.1708619139        1.8880651958        0.8173976023
 C          1.2226600526        0.5264255037        0.5068638621
 C          2.4151180473       -0.1549807995        0.6877661784
 C         -0.0023929187       -0.1334809791       -0.1036311390
 C          0.0338983789        0.1155046119       -1.6136879377
 C         -1.1242625664        0.3928239779       -2.3290766761
 C         -1.0785068439        0.6013899500       -3.6967588365
 C          0.1250443772        0.5335915291       -4.3752626195
 C          1.2837042777        0.2512806757       -3.6724237104
 C          1.2380374103        0.0446404747       -2.3057120469
 C         -0.0067011447       -1.6186547920        0.2127044023
 C         -0.0641023222       -2.6001948499       -0.7656410888
 C         -0.0750333435       -3.9407980619       -0.4148220392
 C         -0.0306905801       -4.3164778448        0.9155154164
 C          0.0211289789       -3.3416582748        1.8992587928
 C          0.0311769916       -2.0052643278        1.5497654385
 C         -1.2486215340        0.5114314627        0.4761821749
 C         -2.4393709457       -0.1846249799        0.6152836676
 C         -3.6046026766        0.4390190379        1.0392349175
 C         -4.8885422732       -0.3258175547        1.1620073103
 C         -3.5651299874        1.7996820095        1.3209048951
 C         -2.3865072156        2.5080269833        1.2093920851
 C         -1.2201728318        1.8715406250        0.7935689444
 N         -0.0285406005        2.5665814394        0.7058653042
 H          4.6476237127       -1.3039643452        1.6019728313
 H          5.3855180924       -0.3060769976        0.3509964275
 H          5.4863295001        0.1931244513        2.0379853243
 H          4.3861715681        2.3660565485        1.7463728942
 H          2.2722214348        3.5954742916        1.4888542487
 H          2.4576185153       -1.2121930513        0.4674968384
 H         -2.0740381909        0.4465647800       -1.8199471834
 H         -1.9911395859        0.8172109656       -4.2335151823
 H          0.1601299439        0.6966719715       -5.4423584373
 H          2.2298344087        0.1905871088       -4.1907800010
 H          2.1506569036       -0.1748065106       -1.7735213900
 H         -0.1021226615       -2.3224601927       -1.8081075402
 H         -0.1194387238       -4.6939732078       -1.1883071695
 H         -0.0376310838       -5.3620876761        1.1863014302
 H          0.0533079630       -3.6255956068        2.9411594567
 H          0.0698974195       -1.2458599296        2.3174365143
 H         -2.4629986020       -1.2369304058        0.3720791019
 H         -4.7114091260       -1.3950396859        1.0774265367
 H         -5.3649985162       -0.1240259133        2.1198540222
 H         -5.5837133383       -0.0291848952        0.3761859577
 H         -4.4647628885        2.3058010512        1.6395560996
 H         -2.3589804408        3.5628654927        1.4451625608
 H         -0.0379893171        3.5283992247        1.0124422518
  51
        -72.48729213
 C          4.8924527002        1.0620151980       -0.6059165032
 C          3.6205469073        1.0909016216        0.1878683348
 C          3.5970070076        1.6258368633        1.4699956461
 C          2.4276487139        1.6471617864        2.2030125439
 C          1.2549630701        1.1184155233        1.6715886474
 C          1.2672076438        0.5508480858        0.3942601710
 C          2.4489326161        0.5537966571       -0.3289191218
 C          0.0108045512       -0.1272448513       -0.1215128888
 C          0.0113405462       -0.0820990456       -1.6387146971
 C          0.1585464993       -1.2141674366       -2.4269733376
 C          0.1768637749       -1.1102179534       -3.8085316081
 C          0.0538391095        0.1246749183       -4.4189769736
 C         -0.0812887955        1.2618044043       -3.6385829013
 C         -0.0987810979        1.1583637520       -2.2611370560
 C         -0.0568035418       -1.5625453379        0.4038975471
 C          1.0193312620       -2.1652581010        1.0406482495
 C          0.9228834589       -3.4629517579        1.5152756441
 C         -0.2480873049       -4.1812743886        1.3579689053
 C         -1.3250919991       -3.5908141149        0.7180453051
 C         -1.2300907869       -2.2944056820        0.2485542569
 C         -1.2069795826        0.5929963358        0.4358651178
 C         -2.4100463244        0.6505788159       -0.2483692987
 C         -3.5506511739        1.2019232336        0.3211609393
 C         -4.8450323193        1.2228681758       -0.4357835169
 C         -3.4725827126        1.6999785371        1.6150752932
 C         -2.2769945217        1.6814904082        2.3044724487
 C         -1.1366012838        1.1383036711        1.7206657664
 N          0.0739037430        1.1562725825        2.3885059993
 H          5.5159509033        0.2244950303       -0.2903193698
 H          4.6826435283        0.9476695190       -1.6666301737
 H          5.4617381190        1.9769374932       -0.4553517299
 H          4.5009491859        2.0367315554        1.8956551471
 H          2.4134688313        2.0769612571        3.1950281216
 H          2.4626550853        0.1130131202       -1.3148572635
 H          0.2633829721       -2.1841031278       -1.9648928314
 H          0.2912346776       -2.0013111826       -4.4089967897
 H          0.0662815708        0.2031677313       -5.4960984544
 H         -0.1716380070        2.2313867612       -4.1065711491
 H         -0.1995984864        2.0462495013       -1.6536920715
 H          1.9443167367       -1.6249426873        1.1708056327
 H          1.7711892514       -3.9123972056        2.0112855654
 H         -0.3226360642       -5.1925366335        1.7298563157
 H         -2.2443719664       -4.1427451924        0.5846540085
 H         -2.0780749982       -1.8460350658       -0.2450637164
 H         -2.4657056934        0.2592755447       -1.2541427511
 H         -5.4584253069        2.0674424913       -0.1303522138
 H         -4.6653253366        1.2859825611       -1.5067498057
 H         -5.4097089629        0.3098042144       -0.2417096485
 H         -4.3513424271        2.1203800963        2.0820262741
 H         -2.2161633104        2.0928196386        3.3025065194
 H          0.0957189207        1.6338291580        3.2777959001
  51
        -72.48706999
 C          4.8844665429       -0.2778789615        1.1105031850
 C          3.6015572911        0.4888085202        0.9889633010
 C          3.5463972147        1.8458761176        1.2739145618
 C          2.3491034466        2.5298477278        1.2044448359
 C          1.1843760622        1.8740577490        0.8181743671
 C          1.2302617759        0.5181975202        0.4802819857
 C          2.4350894620       -0.1549537120        0.5940299574
 C         -0.0132756303       -0.1429281812       -0.0942843216
 C          0.0457015158        0.1064030937       -1.6022263030
 C          1.1418071323       -0.3506110500       -2.3275959083
 C          1.2386328535       -0.1230013649       -3.6871296645
 C          0.2424117437        0.5747474616       -4.3495930666
 C         -0.8496238335        1.0352611068       -3.6374485135
 C         -0.9486893312        0.8024041306       -2.2755940518
 C         -0.0438661518       -1.6232990336        0.2400194188
 C          0.1497331180       -2.0073161373        1.5635963905
 C          0.0892911653       -3.3383689568        1.9295052528
 C         -0.1764337617       -4.3094722515        0.9778017182
 C         -0.3870923855       -3.9352270210       -0.3370758104
 C         -0.3245781141       -2.6009247799       -0.7041354756
 C         -1.2542234114        0.5066419234        0.4919577670
 C         -2.4535443009       -0.1790092007        0.5934292897
 C         -3.6139608102        0.4376875548        1.0429157828
 C         -4.9042739165       -0.3231435451        1.1112339592
 C         -3.5592949698        1.7813180830        1.3908157268
 C         -2.3723094072        2.4816870789        1.3101566127
 C         -1.2126162906        1.8534639591        0.8648897106
 N         -0.0214978996        2.5474773876        0.7878813466
 H          4.9135175774       -0.8139389224        2.0598959799
 H          4.9748329364       -1.0110298252        0.3115111959
 H          5.7409028573        0.3908440637        1.0724682587
 H          4.4438965861        2.3711568356        1.5664379004
 H          2.3069618465        3.5818903648        1.4501253172
 H          2.4747856139       -1.2119105952        0.3738516912
 H          1.9267849771       -0.8932381250       -1.8248136840
 H          2.0963081672       -0.4903714795       -4.2321004325
 H          0.3180123901        0.7564803726       -5.4114767670
 H         -1.6343108868        1.5802533094       -4.1423523623
 H         -1.8130567907        1.1663460792       -1.7419155245
 H          0.3501721097       -1.2515251573        2.3092454499
 H          0.2452103471       -3.6199012966        2.9608161570
 H         -0.2262159629       -5.3502845369        1.2619315712
 H         -0.6070887301       -4.6842389548       -1.0841915827
 H         -0.5021836491       -2.3227829492       -1.7321023456
 H         -2.4915789722       -1.2178130864        0.3009788369
 H         -5.5214625301        0.0340059520        1.9326570649
 H         -5.4679013237       -0.1927827035        0.1863428774
 H         -4.7182472126       -1.3862110762        1.2451561133
 H         -4.4524929252        2.2835492138        1.7330430508
 H         -2.3341249175        3.5246515742        1.5924029078
 H         -0.0224420443        3.5007734174        1.1185268772
  51
        -72.48682807
 C          4.9267291153       -0.1099225712        0.9084066534
 C          3.6015195629        0.5914323753        0.9250750680
 C          3.4989257313        1.9181008277        1.3203165575
 C          2.2736256795        2.5531444553        1.3308422807
 C          1.1260720972        1.8817638350        0.9182749744
 C          1.2157010887        0.5571355265        0.4816907155
 C          2.4512670899       -0.0683173129        0.5123301545
 C         -0.0112871952       -0.1371107870       -0.0926733252
 C          0.0690273249        0.0962657650       -1.6012413758
 C         -0.7981189655        0.9604749052       -2.2553878482
 C         -0.6724971709        1.1942442141       -3.6149053801
 C          0.3223948320        0.5698854571       -4.3441731043
 C          1.1945004472       -0.2920976942       -3.7004838749
 C          1.0705607835       -0.5222810007       -2.3436315757
 C         -0.0144274775       -1.6111699491        0.2729084891
 C         -0.3801307675       -2.6029934134       -0.6277575275
 C         -0.4213068156       -3.9301454482       -0.2347955916
 C         -0.1074687479       -4.2844645166        1.0654189175
 C          0.2363798584       -3.2995112621        1.9759987475
 C          0.2761849291       -1.9746374555        1.5834888290
 C         -1.2827614379        0.4782505176        0.4685962349
 C         -2.4798488524       -0.2180889244        0.4556328328
 C         -3.6688399445        0.3537337979        0.8907612550
 C         -4.9431908944       -0.4359700710        0.8729061662
 C         -3.6452905828        1.6635766822        1.3501499840
 C         -2.4629730870        2.3756661529        1.3806534113
 C         -1.2763363994        1.7939171079        0.9429039455
 N         -0.1000121794        2.5133873661        0.9614755973
 H          4.8056055070       -1.1708962106        1.1158996652
 H          5.3915499824       -0.0099141767       -0.0734915643
 H          5.6020596532        0.3190100304        1.6450637962
 H          4.3807216084        2.4559634290        1.6366990885
 H          2.1948319832        3.5790738250        1.6630591720
 H          2.5281367794       -1.1037137440        0.2158599028
 H         -1.5848488317        1.4564355515       -1.7083559155
 H         -1.3588487537        1.8701694365       -4.1037693476
 H          0.4200641305        0.7525524849       -5.4040400487
 H          1.9770767895       -0.7863896472       -4.2580642066
 H          1.7594572625       -1.1957473939       -1.8590596549
 H         -0.6382426108       -2.3405073866       -1.6429723662
 H         -0.7038779384       -4.6901235760       -0.9489773801
 H         -0.1381260769       -5.3201736148        1.3692451711
 H          0.4716710771       -3.5636924519        2.9967436685
 H          0.5391185197       -1.2098839252        2.2999598220
 H         -2.4944932196       -1.2315782386        0.0836435240
 H         -4.9373004877       -1.1597000880        0.0609995212
 H         -5.0588309431       -0.9830429074        1.8094973937
 H         -5.8040976314        0.2185101677        0.7568359466
 H         -4.5579612437        2.1323016555        1.6884688330
 H         -2.4497330415        3.3951598512        1.7407521769
 H         -0.1267947748        3.4390439429        1.3621291525
  51
        -72.48672946
 C          4.9413170138       -0.0876558198        0.8421242800
 C          3.6134088683        0.6071757451        0.8910512974
 C          3.5046779697        1.9219418563        1.3223446323
 C          2.2740384273        2.5450335655        1.3654398742
 C          1.1264968623        1.8737360328        0.9519578442
 C          1.2214147125        0.5618631862        0.4795338542
 C          2.4633254742       -0.0516999190        0.4758747554
 C         -0.0051124512       -0.1366553997       -0.0907792527
 C          0.0729145367        0.0927687913       -1.5996591971
 C         -0.7548024014        1.0065739529       -2.2381959147
 C         -0.6355584539        1.2407308577       -3.5978347045
 C          0.3148360531        0.5677432633       -4.3432418761
 C          1.1496832274       -0.3411419029       -3.7150393515
 C          1.0323586649       -0.5717894339       -2.3574484599
 C         -0.0075897264       -1.6085454826        0.2848833014
 C         -0.4071354566       -2.6026816393       -0.5988956156
 C         -0.4554463021       -3.9264753405       -0.1950564817
 C         -0.1151050842       -4.2751433484        1.0997613078
 C          0.2637778493       -3.2878303831        1.9939855810
 C          0.3104740933       -1.9664643688        1.5907560463
 C         -1.2813526055        0.4743541620        0.4663741207
 C         -2.4817401047       -0.2171611646        0.4136570341
 C         -3.6736976032        0.3451786983        0.8470450858
 C         -4.9631920613       -0.4155495626        0.7656028084
 C         -3.6520528186        1.6414991344        1.3481239358
 C         -2.4694231598        2.3477195481        1.4168087821
 C         -1.2777525787        1.7751041832        0.9768292355
 N         -0.1027516022        2.4946367981        1.0277386149
 H          5.3239918603       -0.0957078820       -0.1792290931
 H          5.6680775140        0.4191510208        1.4722414407
 H          4.8485225203       -1.1206264157        1.1721029923
 H          4.3861983804        2.4592055399        1.6405816297
 H          2.1898274555        3.5615433241        1.7241823855
 H          2.5452993195       -1.0776935458        0.1501223729
 H         -1.5064012966        1.5406188064       -1.6776812327
 H         -1.2917818287        1.9546256435       -4.0745288133
 H          0.4062250539        0.7490445362       -5.4040303479
 H          1.8970124786       -0.8734380227       -4.2860339100
 H          1.6908492223       -1.2842068030       -1.8859447031
 H         -0.6862872912       -2.3451011288       -1.6099407435
 H         -0.7655428356       -4.6876701000       -0.8966062358
 H         -0.1520228188       -5.3080907612        1.4129697243
 H          0.5192756135       -3.5481664547        3.0109145498
 H          0.5991908036       -1.1998593558        2.2950768267
 H         -2.4911010914       -1.2191787052        0.0120701459
 H         -4.7965084077       -1.4191246751        0.3826875477
 H         -5.4249685688       -0.4907839682        1.7493318314
 H         -5.6656300798        0.0948272952        0.1070303735
 H         -4.5695198328        2.1001051087        1.6872937680
 H         -2.4576633795        3.3553877238        1.8088262739
 H         -0.1352015242        3.4085699182        1.4537070906
  51
        -72.48658978
 C          4.9644077296       -0.2309458562        0.6117443565
 C          3.6598922020        0.4946933737        0.7535707223
 C          3.6027640423        1.7885621727        1.2520672923
 C          2.3908960196        2.4370749354        1.3774144915
 C          1.2098014879        1.8137806413        0.9829933589
 C          1.2507801686        0.5224852622        0.4500762591
 C          2.4760733537       -0.1172960921        0.3621037970
 C         -0.0128914389       -0.1343335341       -0.0886294479
 C          0.0431070172        0.0826000710       -1.5997900521
 C          0.9092590989       -0.6679269624       -2.3884919179
 C          1.0101532090       -0.4389013852       -3.7480254876
 C          0.2523287263        0.5527734210       -4.3473168911
 C         -0.6042900690        1.3115715276       -3.5710134247
 C         -0.7065140960        1.0800066829       -2.2098980804
 C         -0.0584601555       -1.6014754547        0.3043913443
 C          0.3155662369       -1.9624223355        1.5942087665
 C          0.2352969444       -3.2774787389        2.0131518847
 C         -0.2337400752       -4.2548971224        1.1517102579
 C         -0.6305877203       -3.9022361415       -0.1260094319
 C         -0.5489508387       -2.5851246722       -0.5453103275
 C         -1.2596841622        0.5200458078        0.4875144615
 C         -2.4910430338       -0.1103826538        0.4012894405
 C         -3.6585497206        0.4876180819        0.8546295755
 C         -4.9759235325       -0.2209907830        0.7518365227
 C         -3.5790732464        1.7565828839        1.4149698752
 C         -2.3648767579        2.4029523451        1.5167850801
 C         -1.1989827243        1.7962494261        1.0539428717
 N          0.0039450674        2.4630925594        1.1358919337
 H          5.7536103984        0.2782022852        1.1590095117
 H          4.8800536282       -1.2505868169        0.9835884878
 H          5.2547757673       -0.2819257953       -0.4380534254
 H          4.5099714783        2.2902084893        1.5559264555
 H          2.3475759907        3.4373944260        1.7855189737
 H          2.5186003934       -1.1280982639       -0.0138428876
 H          1.5061982642       -1.4476766508       -1.9422860456
 H          1.6856827457       -1.0373157119       -4.3423868195
 H          0.3311857758        0.7325533944       -5.4092803748
 H         -1.1986110472        2.0914499977       -4.0249564642
 H         -1.3826311559        1.6829382172       -1.6236598263
 H          0.6755500520       -1.2041184837        2.2742855156
 H          0.5357441788       -3.5399142837        3.0172189628
 H         -0.2961259616       -5.2829721500        1.4767824882
 H         -1.0100353060       -4.6553756944       -0.8017907237
 H         -0.8701258618       -2.3248839566       -1.5432210644
 H         -2.5464350441       -1.0928882314       -0.0425222166
 H         -5.2485283086       -0.6511586373        1.7162732329
 H         -5.7643071204        0.4701131314        0.4597236251
 H         -4.9262457590       -1.0264644818        0.0232303724
 H         -4.4752365512        2.2430058773        1.7718149550
 H         -2.3074038169        3.3913640478        1.9514656612
 H          0.0105393166        3.3609749804        1.5951983642
  51
        -72.48634034
 C          4.9856993358        0.0499666663        0.4876104639
 C          3.6394800259        0.6660997666        0.7247900366
 C          3.5168874538        1.8961045982        1.3577463350
 C          2.2729768639        2.4549857075        1.5643800971
 C          1.1209386598        1.8046489209        1.1263419386
 C          1.2258549709        0.5777220100        0.4673631769
 C          2.4858653565        0.0283079960        0.2906849085
 C         -0.0027023324       -0.1294371772       -0.0896664040
 C          0.0760899680        0.0692219379       -1.6007632578
 C         -0.5929970076        1.1275797996       -2.2032721768
 C         -0.4783123178        1.3583288901       -3.5629570198
 C          0.3138391364        0.5382265878       -4.3460682564
 C          0.9952169593       -0.5112278115       -3.7543167868
 C          0.8812432772       -0.7401209518       -2.3951677630
 C         -0.0033033760       -1.5899366757        0.3343789870
 C         -0.5081847795       -2.5997422902       -0.4761549822
 C         -0.5493050727       -3.9093980114       -0.0294361758
 C         -0.0956740790       -4.2305177383        1.2376701925
 C          0.3892088180       -3.2284209182        2.0603912420
 C          0.4284836579       -1.9202746718        1.6140992447
 C         -1.2924652707        0.4776973133        0.4460856307
 C         -2.5054625021       -0.1506188976        0.2155657930
 C         -3.7115359900        0.3879257221        0.6441172972
 C         -5.0001722120       -0.3314173979        0.3799915341
 C         -3.6906275900        1.5941043096        1.3311048657
 C         -2.4958176013        2.2394047819        1.5753086375
 C         -1.2916288474        1.6940339587        1.1348591366
 N         -0.1130103056        2.3685993753        1.3596325767
 H          5.6958595675        0.3646210657        1.2488864148
 H          4.9203395246       -1.0357604223        0.4930651123
 H          5.3736011017        0.3592242930       -0.4838738287
 H          4.3997449294        2.4159545402        1.7001961416
 H          2.1796066499        3.4046789791        2.0728558289
 H          2.5766198700       -0.9319630112       -0.1925358182
 H         -1.2151440253        1.7788119362       -1.6083715736
 H         -1.0113353384        2.1845544767       -4.0111219547
 H          0.4020748013        0.7158260767       -5.4077923060
 H          1.6201861645       -1.1570851790       -4.3542293549
 H          1.4175109100       -1.5677696353       -1.9575549001
 H         -0.8676715432       -2.3686130856       -1.4682521357
 H         -0.9399902143       -4.6819087030       -0.6762631957
 H         -0.1245379534       -5.2532940493        1.5835570326
 H          0.7360458236       -3.4661498367        3.0557288521
 H          0.8028473696       -1.1443477671        2.2656326489
 H         -2.5175616370       -1.0855597607       -0.3229355193
 H         -5.1723919983       -1.0875759842        1.1470314193
 H         -5.8399179828        0.3593904235        0.3913574453
 H         -4.9704161375       -0.8344163009       -0.5842543252
 H         -4.6151507515        2.0347503136        1.6747238157
 H         -2.4833396568        3.1811965834        2.1063990158
 H         -0.1501649425        3.2221997965        1.8946522041
  51
        -72.48621181
 C          5.0018634186        0.5211989442       -0.0588296080
 C          3.6456919795        0.9014965254        0.4551170808
 C          3.5116842670        1.8739636497        1.4390941961
 C          2.2662324998        2.2095701391        1.9250857852
 C          1.1207768161        1.5805591417        1.4386046934
 C          1.2350378468        0.6060413816        0.4445783785
 C          2.4997401057        0.2850296341       -0.0247457181
 C          0.0132114902       -0.1202170897       -0.1034100726
 C          0.0850397924        0.0129153520       -1.6173351869
 C         -0.4164132618        1.1620337078       -2.2181699254
 C         -0.3129171483        1.3520823248       -3.5838715360
 C          0.3063340954        0.3995203594       -4.3745359280
 C          0.8270162588       -0.7384816560       -3.7844781521
 C          0.7215033845       -0.9287629824       -2.4174444978
 C          0.0014272942       -1.5631045628        0.3902299445
 C         -0.6621515997       -2.5678658809       -0.3053880719
 C         -0.7203766203       -3.8562608066        0.1947885481
 C         -0.1246525934       -4.1642353777        1.4053421132
 C          0.5257668981       -3.1688897624        2.1127014921
 C          0.5845146691       -1.8808190192        1.6111568417
 C         -1.2852267371        0.4878401525        0.4111098038
 C         -2.4988083489        0.0736645129       -0.1146394171
 C         -3.7122453169        0.5641451495        0.3465525295
 C         -5.0036285290        0.0699429174       -0.2330985689
 C         -3.6997470952        1.5021332899        1.3707173990
 C         -2.5050777818        1.9425933168        1.9006790673
 C         -1.2920203803        1.4448108298        1.4282025956
 N         -0.1102543169        1.9112879442        1.9564733991
 H          5.5752884716        1.4086016144       -0.3216169570
 H          5.5588426528       -0.0205846701        0.7060457088
 H          4.9188514543       -0.1140726353       -0.9369849051
 H          4.3896557916        2.3690138228        1.8277575288
 H          2.1649995976        2.9640421739        2.6930711495
 H          2.5973010342       -0.4735308726       -0.7855663057
 H         -0.8961755160        1.9146954868       -1.6099397865
 H         -0.7153173405        2.2491398564       -4.0318303338
 H          0.3865294952        0.5451195368       -5.4416704714
 H          1.3201527639       -1.4846295242       -4.3909657213
 H          1.1328539098       -1.8250514193       -1.9769478381
 H         -1.1314922055       -2.3533718228       -1.2532532830
 H         -1.2351540058       -4.6236678926       -0.3654711026
 H         -0.1701147772       -5.1705086583        1.7948851023
 H          0.9888047564       -3.3942013454        3.0625905648
 H          1.0923180130       -1.1149894649        2.1779002926
 H         -2.5033559616       -0.6479659383       -0.9164143848
 H         -5.7820942182        0.8243565205       -0.1455788521
 H         -4.8816325637       -0.1913039499       -1.2819761016
 H         -5.3365900534       -0.8220460714        0.2993123346
 H         -4.6306963580        1.8971798567        1.7504441326
 H         -2.4979027116        2.6839126185        2.6877983615
 H         -0.1544002541        2.6413772277        2.6498100280
  51
        -72.48613126
 C          5.0101429639        0.0730049481       -0.0422638421
 C          3.7021836285        0.6277036706        0.4368566504
 C          3.6467175587        1.7002869033        1.3154314175
 C          2.4300793892        2.1879934879        1.7468419014
 C          1.2381827028        1.6160831742        1.3062441375
 C          1.2738517081        0.5428872291        0.4117957113
 C          2.5081036299        0.0692218430       -0.0007224068
 C         -0.0002182848       -0.1185082997       -0.0985284839
 C          0.0310506731        0.0287859808       -1.6140759735
 C          0.6446127408       -0.9080355034       -2.4376578323
 C          0.7094435877       -0.7119597546       -3.8061256011
 C          0.1683842131        0.4269098539       -4.3762890410
 C         -0.4287425592        1.3742759992       -3.5633523385
 C         -0.4904580691        1.1789558864       -2.1955668399
 C         -0.0558202926       -1.5636596218        0.3814936442
 C          0.5004712058       -1.8958086671        1.6113502953
 C          0.4137367013       -3.1846476466        2.1057290322
 C         -0.2420192383       -4.1657110766        1.3832159828
 C         -0.8149063053       -3.8424039287        0.1657660629
 C         -0.7260891159       -2.5531342915       -0.3288426537
 C         -1.2522825660        0.5477301165        0.4575827705
 C         -2.5025850400        0.1058285805        0.0583766952
 C         -3.6778062407        0.6678229492        0.5401570367
 C         -5.0051339805        0.1616107107        0.0603771931
 C         -3.5863362646        1.7063685921        1.4559576820
 C         -2.3527529551        2.1711137334        1.8639125932
 C         -1.1797832713        1.6044418539        1.3695894016
 N          0.0378828944        2.1008780059        1.7700119025
 H          5.0583356314       -1.0001528793        0.1372381725
 H          5.1208325454        0.2362095381       -1.1142427364
 H          5.8441400515        0.5493295029        0.4667932997
 H          4.5595950012        2.1559712814        1.6705642190
 H          2.3895370450        3.0184288749        2.4381343372
 H          2.5492198930       -0.7681650686       -0.6793717073
 H          1.0689034380       -1.8071798601       -2.0162445925
 H          1.1860093094       -1.4547217938       -4.4296599711
 H          0.2158300997        0.5767330949       -5.4447935951
 H         -0.8478294713        2.2716769740       -3.9951871395
 H         -0.9558190509        1.9278803483       -1.5720881249
 H          1.0114128515       -1.1396484351        2.1884969473
 H          0.8588909029       -3.4224199078        3.0610766785
 H         -0.3094753925       -5.1729987612        1.7669062963
 H         -1.3351312599       -4.5980741169       -0.4048832482
 H         -1.1759838178       -2.3263711344       -1.2836833553
 H         -2.5711598335       -0.6975788278       -0.6578984298
 H         -5.1482228829        0.4131228643       -0.9905901571
 H         -5.0578815097       -0.9220341595        0.1532745453
 H         -5.8181169366        0.6013017231        0.6325467382
 H         -4.4841598717        2.1594440043        1.8498987925
 H         -2.2841567747        2.9860049095        2.5713771910
 H          0.0512921412        2.8722175475        2.4181943615
