93
 energy: -141.759655880304 gnorm: 0.000068916813 xtb: 6.7.1 (edcfbbe)
C           -4.05725953548499       -2.35667361454240        1.20218155040708
C           -4.11923779872423       -2.64673886812892       -0.31302884129373
C           -5.58611927648793       -2.82213849045548       -0.70541645836446
C           -3.29241489737055       -3.88527698713229       -0.57933295795006
C           -3.83151137508573       -5.14803601784511       -0.76842074495271
C           -3.02244928429785       -6.26135191419922       -0.91621480448893
C           -1.64705774884195       -6.11878246933983       -0.88717167762306
C           -1.08829560433492       -4.86680903204667       -0.72962089183917
C           -1.90062105027941       -3.74470613576613       -0.56848793173675
N           -1.32380534639569       -2.47446945158748       -0.47750623166137
C            0.01687833401606       -2.40859536615558       -0.06093963014695
C            0.33051929950187       -2.90348887730606        1.20881066886032
C            1.62691459572079       -2.88230380044907        1.66565772375771
C            2.65993863397940       -2.37242399911676        0.87117769295319
C            4.02580850141135       -2.40637948517010        1.42840201924633
O            4.32084168436245       -3.11240906119541        2.37537347329752
C            5.06480883149409       -1.53732482584425        0.79455494469335
C            6.41688357091405       -1.86384250565179        0.92729402409029
C            7.35926930336894       -1.04969290138434        0.32170550468795
C            6.92886368806660        0.05432863793101       -0.39764658064256
C            5.56034387919624        0.31252432479402       -0.45073868205004
C            4.99603068081678        1.43905263830782       -1.25427997289881
O            5.59785909620967        1.93238261299569       -2.18318336931713
C            3.62189171229952        1.81837081235625       -0.85448926252342
C            3.29827327935179        2.02246201733170        0.48514958965661
C            2.01111359428958        2.35998024491213        0.84583912026769
C            1.00787551489234        2.44903093169247       -0.11821783358565
N           -0.31466079335752        2.76490521750060        0.26249719965879
C           -0.99204822881781        1.92507017793669        1.14238616017083
C           -0.39804798239008        0.73524924623828        1.57529439198343
C           -1.03465992277653       -0.09429730754341        2.47311993651341
C           -2.29678004489585        0.22592765731215        2.93684145341549
C           -2.90815005137395        1.37390974954158        2.47275424001007
C           -2.28349833839684        2.23520844285796        1.58109319397058
C           -3.02465008687293        3.47333928294788        1.12037356446461
C           -3.27723016366731        4.37891504035650        2.34181925564578
C           -4.36222084542000        3.04284130903330        0.49430809815061
C           -2.21747391796924        4.26895287665777        0.11504342548901
C           -2.76530853180831        5.42455211762689       -0.42681169738581
C           -2.05340677867499        6.25000337811677       -1.27559195225189
C           -0.73756321737838        5.93893324032351       -1.56483813037746
C           -0.17023684956990        4.79666080883291       -1.04105240665373
C           -0.90546048614579        3.92657351843647       -0.22922171968295
C            1.33154653658265        2.23431542190791       -1.45700599677219
C            2.63096072539589        1.94834117812913       -1.82303534879845
N            4.65925131556638       -0.46273560556931        0.13781073794205
C            2.35236473151747       -1.92746671500566       -0.41468517725618
C            1.05071862238211       -1.94726694936957       -0.87475471660191
C           -2.04958109818476       -1.37917882694845       -0.94765259076190
C           -1.43518402567252       -0.19371410490780       -1.34544019434719
C           -2.17502185071067        0.82476900627042       -1.91337337867849
C           -3.53530138149536        0.67418735556854       -2.10062420255548
C           -4.16373500895343       -0.46397596777545       -1.62509233108611
C           -3.44960186176810       -1.48183284377562       -1.01612472374869
H           -4.61581180621916       -1.45140102796353        1.43029423392930
H           -3.03053065707117       -2.20909741788964        1.52662896379299
H           -4.48473577036712       -3.18817006329788        1.75916743601487
H           -6.02914661150550       -3.63989170171859       -0.14298144994449
H           -5.68445100309434       -3.02860148700221       -1.76886635641502
H           -6.15145211732581       -1.92656889048100       -0.46174185643371
H           -4.90055899268479       -5.28207637519002       -0.79266830598147
H           -3.46718772335937       -7.23553685475787       -1.05110301963494
H           -1.00531291435448       -6.97913591318034       -1.00331512935147
H           -0.01462730939161       -4.75409476346333       -0.74160836704460
H           -0.46030510947995       -3.31377386594852        1.82015236672743
H            1.87287149951903       -3.25335127688350        2.64964664683645
H            6.69409075935475       -2.74176737935801        1.48967169322448
H            8.41251765348017       -1.27606291385184        0.40157918779968
H            7.61527226389228        0.71327448190341       -0.90587467614363
H            4.06534518609643        1.95090320336266        1.24096678159245
H            1.76693975237034        2.55082660859296        1.88038791393085
H            0.57639234203103        0.44953314749542        1.21036634268794
H           -0.53523073700438       -0.98998339582463        2.80921473488835
H           -2.80278523131291       -0.41165344355226        3.64569448616293
H           -3.90064161882351        1.60757679455064        2.82639694362517
H           -3.84532322031106        5.26082862620713        2.05850826668571
H           -2.32861246676355        4.70358943682482        2.76567023955454
H           -3.83095091567279        3.84639506318634        3.11043174483199
H           -4.88676031523750        3.89324111796602        0.06841868623038
H           -5.01022060827414        2.58841797282487        1.23848777575117
H           -4.18075013046518        2.31491074050946       -0.29315118284875
H           -3.77750884242889        5.69995259420698       -0.17217002521147
H           -2.51282132765635        7.13675952001319       -1.68456281875539
H           -0.14501685966434        6.58746627962355       -2.19254557562032
H            0.86610061206737        4.58765866165423       -1.25406414589596
H            0.56131044353516        2.30279476744244       -2.21033894369812
H            2.88543373357603        1.79375436887967       -2.86091952077130
H            3.13542291610253       -1.59063907833784       -1.07392377826393
H            0.84298401099224       -1.65405195485906       -1.89247242540954
H           -0.37647210171475       -0.05550599146184       -1.20529114644673
H           -1.68845399672769        1.73783236535014       -2.22184259382580
H           -4.11018430834468        1.44626153042950       -2.59001323341654
H           -5.23384275214551       -0.53918569841753       -1.72626382763145
