93
 energy: -141.696065568811 gnorm: 0.000130595474 xtb: 6.7.1 (edcfbbe)
C           -4.15426537255434       -2.38830007059804        1.22920708130694
C           -4.24857563549975       -2.58965863018589       -0.30018421312153
C           -5.72339097938956       -2.74199251656073       -0.67174889323333
C           -3.42728703411467       -3.80944077575026       -0.65507330563784
C           -3.96866382854272       -5.06278858119328       -0.88959480564918
C           -3.16049831948492       -6.16453267141166       -1.11475470987299
C           -1.78358451359521       -6.02118448222113       -1.11163068362257
C           -1.22170884283963       -4.77969613803397       -0.90121142155971
C           -2.03300931143171       -3.66656385641533       -0.67049427560140
N           -1.45686076530227       -2.40856928775626       -0.51638590981686
C           -0.10758738311687       -2.36422600114408       -0.09688128547241
C            0.21350976264485       -2.93478069162249        1.13954447812077
C            1.51097541614156       -2.95846398915703        1.58642273931116
C            2.54363633063351       -2.37775147477768        0.82976541776516
C            3.90638492236755       -2.47605114626712        1.35887118631494
O            4.16433399925223       -3.27405152283422        2.29140579613494
C            4.94644576769417       -1.65584961348583        0.77426708528413
C            6.30639061150239       -1.90090175858391        1.09339687348329
C            7.27425522300026       -1.13133664335657        0.50245484075945
C            6.91625344132779       -0.09869779647398       -0.37544503251773
C            5.55996529593673        0.12691126381103       -0.58326310307857
C            5.03690597816941        1.23091035054939       -1.42941948498385
O            5.64050148609984        1.71427663142004       -2.36455798600359
C            3.67438176491495        1.65751071169490       -1.00547251510688
C            3.43018322526907        1.95305321152151        0.33402075940033
C            2.17028997612466        2.33357555464958        0.74596334060504
C            1.12012844048851        2.38071585927094       -0.16700876319216
N           -0.17883594767450        2.74582175767065        0.27264257193787
C           -0.84441549133018        1.92651021165093        1.17399984143883
C           -0.26434432785119        0.71994918696203        1.58420420857079
C           -0.90062968553252       -0.10382371892697        2.48633721166087
C           -2.14592316860152        0.24171096243878        2.98020076520976
C           -2.73466472846260        1.41790340579745        2.55787463012849
C           -2.10978565775619        2.27535112515339        1.66309840832966
C           -2.80756438045313        3.55850282584814        1.26456629752279
C           -2.92567743682434        4.45621433258595        2.51278661469509
C           -4.20842449630350        3.21844220593820        0.72666039675059
C           -2.02217181153771        4.32391680042332        0.22035635197214
C           -2.54435829178276        5.50384705814605       -0.29259094042254
C           -1.84422783430321        6.29120793301211       -1.18682838228794
C           -0.56593964933913        5.91399205386501       -1.55982649969423
C           -0.02103772735761        4.75009443750407       -1.06307007648501
C           -0.74450208547277        3.92424349716857       -0.19368195609040
C            1.36035170943834        2.07839835753731       -1.50444356315694
C            2.63389054043029        1.74275632334312       -1.92344560959952
N            4.63876460703236       -0.63969699912586       -0.02402251531921
C            2.22014531272449       -1.85303163635739       -0.42472258173757
C            0.92256520514792       -1.85918703661353       -0.88939287746088
C           -2.18964185139329       -1.29051888001454       -0.89085929521190
C           -1.57586726779600       -0.08611671885981       -1.23776109660539
C           -2.31904139176580        0.96034445797902       -1.74380177682986
C           -3.68491484377876        0.82433645382456       -1.91288484147809
C           -4.31245310145445       -0.33364481322998       -1.48425164926338
C           -3.59329700238690       -1.38556000125145       -0.94469254071937
H           -4.71213338027228       -1.50112551135304        1.52136388083256
H           -3.12119303349555       -2.25584051389087        1.54085816623875
H           -4.56704026873081       -3.25299779441374        1.74472625642005
H           -6.15673186698751       -3.58938318307949       -0.14727526202200
H           -5.84273834256562       -2.88886932106586       -1.74286327150884
H           -6.28212195565713       -1.86088349894386       -0.36765918835504
H           -5.03762059680374       -5.19939463422210       -0.89117192188857
H           -3.60721210035089       -7.13148567078486       -1.28847767339679
H           -1.14535513647562       -6.87385183282360       -1.28610790197033
H           -0.14956862503102       -4.66115724314807       -0.92833755752480
H           -0.57691046513601       -3.37054025867489        1.73464377774419
H            1.76860262934299       -3.41028651170828        2.53255371717607
H            6.52255464924892       -2.70236507696822        1.78276281139429
H            8.31814664025283       -1.31615181268495        0.71079898363299
H            7.64535337736586        0.52765063470384       -0.86201750860228
H            4.23706250286022        1.90830337621212        1.04960307211406
H            1.98549120203775        2.58690541874377        1.77943383994691
H            0.69602898349275        0.41919612154693        1.19614449938602
H           -0.41675377971010       -1.01525958477914        2.80017566076237
H           -2.65375686848687       -0.39586202251178        3.68760809698370
H           -3.70676568124916        1.67663595990603        2.94803224178690
H           -3.46295708045658        5.37145701769691        2.27957774295724
H           -1.93449457816921        4.72251179348553        2.87518607587826
H           -3.45390785348680        3.93938515398764        3.30954717907901
H           -4.69973485811449        4.10066729312655        0.32753842154896
H           -4.83789088019251        2.81476948248317        1.51438209638801
H           -4.12870276609110        2.47613124171087       -0.06405261327498
H           -3.52429024370791        5.82996167356663        0.02080088010460
H           -2.28345995618743        7.19903385297359       -1.57046936285573
H            0.01316096646008        6.52893052784098       -2.23174862855016
H            0.98600098497777        4.48416106348520       -1.34162290534876
H            0.54963148986299        2.11792496435635       -2.21683240329480
H            2.82515978554760        1.52013104914353       -2.96238699951540
H            3.00077960332113       -1.45899652314458       -1.05701836394524
H            0.71506218355632       -1.51558833274830       -1.89193648093461
H           -0.51295165101205        0.02931353464588       -1.11659894271185
H           -1.83334851975969        1.88429666183295       -2.02061859582738
H           -4.26398058316995        1.62070661578824       -2.35605720290749
H           -5.38437066675610       -0.39908483042391       -1.57179040013102
