93
 energy: -141.759249136799 gnorm: 0.000024556340 xtb: 6.7.1 (edcfbbe)
C           -3.14988136691569       -4.15349505052151       -0.50176704578032
C           -3.53397177533267       -3.11999604014139        0.57150217823763
C           -4.17409725528058       -3.82077105730903        1.78453664510546
C           -4.54622754438018       -2.16144291384067       -0.02047223628386
C           -5.78664392275670       -2.63932485937804       -0.42344286394624
C           -6.76405928168393       -1.80623435059047       -0.93290248611493
C           -6.51386906182631       -0.44845274239620       -1.02049212914127
C           -5.28688677964770        0.04908462126846       -0.63710041928518
C           -4.27741157823869       -0.79852675484614       -0.16878688831572
N           -3.04318653330179       -0.26132853047076        0.18720945969926
C           -2.74547115168473        1.04995702966005       -0.24097352263587
C           -2.73426631750165        1.33915170629442       -1.60635418223632
C           -2.47017693923829        2.61760692310811       -2.04396484126438
C           -2.18491435129852        3.63519330581966       -1.13179143281340
C           -1.91508762128288        4.99088714721517       -1.65049566527134
O           -2.39473182748642        5.41068488974495       -2.68476228694325
C           -0.97458948905713        5.82594953619041       -0.84373205194231
C           -1.01755084339588        7.21871963584389       -0.91433513441985
C           -0.11158918318708        7.94561326324013       -0.15924748830997
C            0.80898740532820        7.26373606773616        0.61962503279133
C            0.79433972436890        5.86856874159259        0.59792701611379
C            1.75532976742340        5.08439378332613        1.43121988183419
O            2.22729411343054        5.55442095966593        2.44760591402346
C            2.06080536949522        3.71790804845526        0.96375396845649
C            2.06612008726164        3.37008899737171       -0.38639977609591
C            2.39336437097295        2.08684563949989       -0.77601146346980
C            2.70234265399368        1.11715012587664        0.17569888156110
N            3.04441657231820       -0.19974867058884       -0.19768696598007
C            2.10291861229282       -1.03892914294054       -0.79035923775911
C            0.88345181008144       -0.52859223213420       -1.24258370333394
C           -0.06228095094143       -1.34780332712343       -1.82112841637311
C            0.17902489057068       -2.70227329163853       -1.94331455621159
C            1.37306032932319       -3.21510902533868       -1.47689592722518
C            2.35104518799154       -2.41122790256393       -0.90752065105096
C            3.63111116761100       -3.05750742636733       -0.41365837065238
C            4.28002885337222       -3.82692575804340       -1.57938185191162
C            3.28714958878175       -4.01987101422871        0.73671518497320
C            4.61983863844883       -2.02921945250122        0.09515209300522
C            5.88386242459353       -2.43643389260846        0.50244647439081
C            6.83951669625841       -1.53835284049455        0.93733890149471
C            6.54199764961804       -0.18727115778428        0.94352703352723
C            5.29049920041113        0.24101375349839        0.55594520845474
C            4.30417460700372       -0.67015879329610        0.16389875427136
C            2.70956645934726        1.46783244869323        1.52692187014693
C            2.40401498593914        2.75321370943436        1.91327818822192
N           -0.08374872445370        5.17405613309421       -0.11065637929806
C           -2.20694333854468        3.34800327300143        0.23230492212802
C           -2.49557218073032        2.07201916799045        0.67251272806284
C           -2.07955941971698       -1.03066681052520        0.83608696985477
C           -0.88349597502279       -0.45138705625032        1.26755865269600
C            0.08536338261307       -1.20130255429235        1.89928720787558
C           -0.10840040244272       -2.55446527418215        2.09747667868151
C           -1.27964593891306       -3.13572095667413        1.65396240061731
C           -2.27985704784963       -2.40183316477628        1.03114174288798
H           -2.40127856608534       -4.84495894835496       -0.12493353017564
H           -2.73950693080063       -3.64359614387106       -1.37064079067067
H           -4.01958035144834       -4.72446530604163       -0.81626840051284
H           -4.43401685870152       -3.08313658711073        2.54146973152932
H           -3.48985178715605       -4.53903345336096        2.22652692892307
H           -5.07810109815338       -4.35023120863650        1.49801823521146
H           -6.00033837211405       -3.69417825747411       -0.34155441690395
H           -7.71517579256826       -2.21111988638655       -1.24293706871989
H           -7.27341068513429        0.22713063370416       -1.38414308411354
H           -5.10882090907785        1.11187669860712       -0.69378350917803
H           -2.95506016979749        0.55413371785195       -2.31488999575412
H           -2.46541579462559        2.85016057541844       -3.09832751326712
H           -1.75358462680936        7.69465583367156       -1.54317769519025
H           -0.12262166302874        9.02561957148130       -0.17776521147412
H            1.53550676876879        7.77596759927044        1.23077687244568
H            1.85057733943333        4.11234817250890       -1.13838801731878
H            2.43755739013472        1.83380297398353       -1.82495550550514
H            0.65974999591209        0.52000749646225       -1.13076236962132
H           -0.98996278346893       -0.92137723710342       -2.17040990703773
H           -0.55150233468991       -3.35658636042286       -2.39338816540269
H            1.54205268660208       -4.27785649886194       -1.55867772850651
H            3.61307815222699       -4.59427654127979       -1.96098738054116
H            5.20074352612373       -4.30961685466495       -1.26510771458859
H            4.51261323943050       -3.13945249152980       -2.39046266953913
H            4.17800311208244       -4.53322535881949        1.08924590941064
H            2.56334708079174       -4.76425807651834        0.41624207550178
H            2.85989463800194       -3.46098385144783        1.56655963045102
H            6.13399382578687       -3.48628113147595        0.48476292454844
H            7.81025741109077       -1.88883858574983        1.25277282323238
H            7.28335147627460        0.53649193416192        1.24700366817955
H            5.07399655269854        1.29819368499134        0.54931808608382
H            2.97801490031132        0.72501231593395        2.26400286221763
H            2.41234792259863        3.03309154415471        2.95606731147334
H           -2.03529367902747        4.13090722052557        0.95388385193951
H           -2.55236549303918        1.86306293210944        1.73053168814792
H           -0.69638905898932        0.59672511650298        1.09787072752820
H            0.99339429307862       -0.72156058412791        2.23050534187682
H            0.64122043595737       -3.15493640864722        2.58937641746036
H           -1.41292953931228       -4.19694511331752        1.79820457285993
