56
 energy: -94.961196186757 gnorm: 0.000052827396 xtb: 6.7.1 (edcfbbe)
O            3.37221386490270        3.49404545875487        0.67492179196323
S            3.19128995508372        2.39322497975798       -0.25055167373386
O            3.50928583002810        2.69318329936336       -1.63679243274283
C            4.16637640147495        1.00058508804189        0.25429274832979
C            5.48483818601724        1.23378204049465        0.60120255516993
C            6.31997298181849        0.18260692212065        0.92341274859464
C            5.80819800539695       -1.10787866940571        0.88167390419949
C            4.49197839987650       -1.34139199939625        0.54552600446564
C            3.62231907446239       -0.28333436198479        0.22641357930161
N            2.29776402821829       -0.54536859704152       -0.07575850707589
C            1.92302121891848       -1.92549286494828       -0.20213369973439
C            2.06888026019972       -2.55643957604400       -1.42926507978339
C            1.72483260685942       -3.89191559193665       -1.55840253761815
C            1.23449406227705       -4.59211468953837       -0.46857089720387
C            1.08471034269400       -3.95805635907987        0.75452804029622
C            1.43022006554413       -2.62497833903990        0.89294162281754
C            1.29176418371451        0.40413187760967       -0.16726870446162
C           -0.04114120422350       -0.00856308474203       -0.24426499726803
C           -1.09964319450280        0.90003532964894       -0.29282009949274
N           -2.40011200967709        0.44981570526534       -0.35444613475712
C           -2.74005679190517       -0.92257877081819       -0.34961871030213
C           -2.29972417783699       -1.78401446495364       -1.34903261949931
C           -2.65005019323715       -3.12172723022932       -1.31877281890882
C           -3.45504290448492       -3.61100588012071       -0.30183156024258
C           -3.94082664670104       -2.75435384308808        0.66900642728261
C           -3.59165913301094       -1.41290159846077        0.63796796840707
S           -4.25369835417000       -0.28798154522375        1.84284296305706
C           -4.46180948124971        1.09143661607364        0.74409201907996
C           -5.56534099571757        1.92089010666181        0.87029542083683
C           -5.73729176446786        2.97108693817208       -0.01298670050456
C           -4.82784664028591        3.16855428928717       -1.04046234855634
C           -3.72974754757613        2.33698573524463       -1.17050374068782
C           -3.51579107699929        1.31189191477872       -0.25507325880743
C           -0.81359452410787        2.27285076945906       -0.20404979703700
C            0.49591677807445        2.68657779821042       -0.15759124289956
C            1.53972428433744        1.77715720247670       -0.16299892542830
H            5.82348751577948        2.25876376810177        0.60522667848194
H            7.34825911156145        0.36137237003253        1.19325944650843
H            6.44527626549678       -1.94594950028430        1.12036425241937
H            4.12468443458826       -2.35456884084288        0.53104495610812
H            2.45490615170964       -1.99843841286498       -2.26931148935843
H            1.84167020638940       -4.38367266754635       -2.51217652199385
H            0.96690181683454       -5.63266220114047       -0.57172544131331
H            0.70045807782018       -4.50145060432469        1.60423839350554
H            1.32270378512359       -2.12041552355729        1.84153346850389
H           -0.26006003836059       -1.06247553103721       -0.24155092658533
H           -1.68010013090809       -1.39471392132778       -2.14248401137251
H           -2.29536901197959       -3.78202842822294       -2.09475361271389
H           -3.72171584528267       -4.65607634000193       -0.27475840274123
H           -4.58948119556425       -3.11190764104042        1.45370232582533
H           -6.27543885827032        1.73778557957193        1.66200891994093
H           -6.59037152001499        3.62356231420742        0.09087267317968
H           -4.97454825703362        3.97086605671466       -1.74728274611890
H           -3.02572036400031        2.47905384780365       -1.97648789071605
H           -1.60541551269107        3.00097938246066       -0.16205160854391
H            0.74962635954440        3.73458445292572       -0.11234654827129
