56
 energy: -94.852837974542 gnorm: 0.000077974197 xtb: 6.7.1 (edcfbbe)
O            3.41309547716392        3.56260337518554        0.28245851558393
S            3.13360839351493        2.34770799133177       -0.46010630445387
O            3.29945877083914        2.45632626954777       -1.90497503237004
C            4.17115723484991        1.02144475420616        0.09866947102052
C            5.49704701360286        1.29317459132962        0.36753325412450
C            6.36362259849066        0.27101638569137        0.72072222097023
C            5.87009433747120       -1.02447067700770        0.78155152511077
C            4.54355814742667       -1.29696174188373        0.52119500884724
C            3.64316094648485       -0.26858341579153        0.17673306863236
N            2.31251697308986       -0.56407814090685       -0.04832285910039
C            1.96470244987495       -1.95187175114786       -0.14344169649757
C            2.12075963185235       -2.60531302745145       -1.35777220860924
C            1.79785419501514       -3.94840572485280       -1.46047076642408
C            1.31739305500876       -4.63461430469012       -0.35759046936039
C            1.15802430229925       -3.97869794178064        0.85283228114215
C            1.48274553771551       -2.63786718638904        0.96495394936455
C            1.27585210824515        0.35718297506864       -0.09652002995315
C           -0.03872312381999       -0.06173826832055       -0.09154560018259
C           -1.11589807346523        0.85825432827599       -0.05565078419743
N           -2.41980904429436        0.42281892533458       -0.11078403935616
C           -2.78539285676867       -0.91562449488573       -0.26158929716648
C           -2.22676460437448       -1.73155652670369       -1.26247350306866
C           -2.61617580145839       -3.04069016186839       -1.39648750700569
C           -3.57443848077960       -3.59347729239407       -0.53877251010786
C           -4.18389651943636       -2.79136710032138        0.41050205204319
C           -3.81414701658064       -1.46470982681588        0.54092202041108
S           -4.62670682913711       -0.42429568959033        1.70973085748160
C           -4.63876573346686        1.01959299827499        0.70085026780176
C           -5.72364400903848        1.87667494480313        0.71457734490999
C           -5.73296344295665        3.00169506763772       -0.09346093367151
C           -4.65337798683606        3.24553214943754       -0.95114310744843
C           -3.56440392191381        2.41125836983181       -0.96167071522055
C           -3.50969850360866        1.29074922987114       -0.10999172236310
C           -0.82043601150723        2.24600465514834        0.13710290880656
C            0.47376001022755        2.66790808177927        0.08633177142472
C            1.52811197128247        1.75915535608413       -0.09851271771713
H            5.82251476949984        2.31941719398986        0.28942358467473
H            7.39925195942601        0.48053277920063        0.93427804710269
H            6.52980039687101       -1.83801895937899        1.04361441929612
H            4.19047381188401       -2.31312937257706        0.58728076553342
H            2.49885639042068       -2.05832100365446       -2.20874046543111
H            1.92340963236255       -4.45672386515741       -2.40447895794185
H            1.06661782907238       -5.68118722942602       -0.44037111904483
H            0.78385993071336       -4.51161363060443        1.71366731645857
H            1.36960764440856       -2.11690681192493        1.90396477368838
H           -0.25903958335662       -1.11461438593911       -0.06702609095037
H           -1.51349916136490       -1.29545226090497       -1.94466169263154
H           -2.18472055073542       -3.64657718443099       -2.17794643757320
H           -3.86019511568515       -4.62793853260875       -0.63642791892375
H           -4.95771154235659       -3.18412260640942        1.05163773004072
H           -6.56070606416690        1.65368854164858        1.35768609663589
H           -6.57817908704436        3.67015979385651       -0.07968193962657
H           -4.68057962532452        4.09404200538013       -1.61742376627035
H           -2.74426641717129        2.58006950300039       -1.64295132835689
H           -1.61121320547790        2.94522292623842        0.34880506596811
H            0.73848516598631        3.70805467681538        0.19725725348402
