  112
       -179.33543133
 C          6.5032073359        3.8997098720       -2.4669918584
 C          5.3988044833        4.1429237344       -3.2665638151
 C          4.2658489885        3.3598843526       -3.1457963561
 C          4.2199910390        2.3150399381       -2.2255396273
 C          3.0119677583        1.4958643299       -2.0563970455
 C          1.7523501572        2.1082746301       -2.0593646299
 C          0.5999210039        1.4002768190       -1.7893523300
 C          0.7216851470        0.0477133300       -1.5093819232
 C          1.9668539621       -0.6096253567       -1.6083573646
 C          3.1142105629        0.1219577477       -1.8628113033
 C          1.7074716432       -1.9988730744       -1.3419673833
 C          2.5191405880       -3.1158012992       -1.2590930067
 C          1.9574179606       -4.3385697391       -0.9054529040
 C          2.8176457430       -5.5201748845       -0.7443787401
 C          3.8661634917       -5.7663559037       -1.6287047527
 C          4.6976339469       -6.8557168283       -1.4498525413
 C          4.5016812839       -7.7146426541       -0.3811259194
 C          3.4631488955       -7.4804212803        0.5046253110
 C          2.6264280102       -6.3954535734        0.3236153230
 C          0.5800989368       -4.4263736898       -0.6619781149
 C         -0.2485809846       -3.3262416822       -0.7438105107
 C          0.3231231316       -2.1062872276       -1.0727412602
 N         -0.2611261494       -0.8585716713       -1.1618427868
 C         -1.4818786025       -0.4804299905       -0.5711399418
 C         -2.6873332179       -0.9387451241       -1.0835186464
 C         -3.9026286155       -0.5254534963       -0.5424500154
 N         -5.0712843647       -0.9448314377       -1.0247222027
 C         -6.2224366461       -0.5175749815       -0.5201823263
 C         -7.4676424963       -0.9637652596       -1.0490684242
 C         -7.5175621935       -1.8680789377       -2.1235404376
 C         -8.7357232959       -2.2734843364       -2.6055458794
 C         -9.8942611071       -1.7653987662       -2.0002042761
 N         -9.8721803335       -0.9230738470       -1.0016557783
 C         -8.7013220214       -0.5114603721       -0.5148690886
 C         -8.6932078597        0.4196425210        0.5843623877
 N         -9.8567734167        0.8425338998        1.0788798998
 C         -9.8640013733        1.6871905531        2.0756918796
 C         -8.6966901827        2.1866940118        2.6710782079
 C         -7.4857726800        1.7684950264        2.1818870031
 C         -7.4517714770        0.8612158486        1.1092875700
 C         -6.2144619327        0.4048270765        0.5705785503
 N         -5.0560798529        0.8267616693        1.0626835514
 C         -3.8946598478        0.4072041533        0.5633338935
 C         -2.6717873225        0.8260177588        1.0822573334
 C         -1.4734782203        0.3794861298        0.5430959580
 N         -0.2455055906        0.7844877983        1.1003090188
 C          0.7657160630       -0.0883062536        1.4484103296
 C          0.6896687605       -1.4424760478        1.7379031139
 C          1.8613634511       -2.1037640751        2.0399229394
 C          3.0983534892       -1.4456649289        2.0726819709
 C          4.3240115462       -2.2099929188        2.3435913754
 C          5.3431119081       -1.6850776712        3.1360494318
 C          6.4927458219       -2.4137758167        3.3781206956
 C          6.6492878143       -3.6758681790        2.8289149391
 C          5.6445174495       -4.2073066524        2.0375128756
 C          4.4922313548       -3.4826375022        1.8004669989
 C          3.1538393598       -0.0733665708        1.8479510645
 C          1.9887678305        0.6106593331        1.5459495424
 C          1.6893057967        1.9863398995        1.2500108485
 C          2.4681657671        3.1230212619        1.1263046350
 C          1.8644025243        4.3241859900        0.7690804294
 C          2.6768675772        5.5341469549        0.5816733590
 C          2.2291582210        6.7784039428        1.0210289623
 C          2.9964127283        7.9114073938        0.8254295019
 C          4.2197404227        7.8228429538        0.1817115123
 C          4.6739690992        6.5912192435       -0.2597030569
 C          3.9123731571        5.4559122040       -0.0584151823
 C          0.4796332850        4.3701597912        0.5576888101
 C         -0.3140750961        3.2466374511        0.6614096228
 C          0.2993024842        2.0486958211        0.9962643360
 C          5.3394366537        2.0765086147       -1.4295465959
 C          6.4696553554        2.8638131656       -1.5479692013
 H          7.3869259310        4.5138391642       -2.5596824058
 H          5.4204390533        4.9473851638       -3.9872702460
 H          3.4131617841        3.5471599458       -3.7818026886
 H          1.6866458134        3.1716332972       -2.2335890299
 H         -0.3644194659        1.8858189082       -1.7838950395
 H          4.0742843723       -0.3689193858       -1.9145458537
 H          3.5815692336       -3.0285770850       -1.4288162767
 H          4.0165872911       -5.1074989553       -2.4715240374
 H          5.5033407971       -7.0359938322       -2.1468134649
 H          5.1555381682       -8.5623374497       -0.2387440920
 H          3.3076524874       -8.1437732308        1.3431078077
 H          1.8312301028       -6.2083369866        1.0311034580
 H          0.1551346624       -5.3878083374       -0.4141850911
 H         -1.3064429809       -3.4106978159       -0.5438524511
 H         -2.6962008485       -1.5991271450       -1.9360716024
 H         -6.5841505639       -2.2186078098       -2.5399350645
 H         -8.8115633783       -2.9670133332       -3.4284098717
 H        -10.8757342855       -2.0586542701       -2.3484089471
 H        -10.8403256979        1.9914622539        2.4291451453
 H         -8.7603248240        2.8829121596        3.4926679994
 H         -6.5463626330        2.1119507733        2.5904020616
 H         -2.6680910801        1.4867296376        1.9346019992
 H         -0.2573079288       -1.9613311446        1.7301707079
 H          1.8244203790       -3.1573931729        2.2710733474
 H          5.2220967762       -0.7096499435        3.5847345184
 H          7.2707809683       -1.9963913159        4.0010743185
 H          7.5495234705       -4.2418028490        3.0178536229
 H          5.7552169942       -5.1892654825        1.5998798963
 H          3.7223558654       -3.8979039807        1.1692995698
 H          4.0967905577        0.4508202955        1.8840700036
 H          3.5310146223        3.0792636465        1.3087733109
 H          1.2833992211        6.8528997129        1.5381736861
 H          2.6395230649        8.8686286209        1.1773362253
 H          4.8152883950        8.7101888745        0.0252266521
 H          5.6241151877        6.5118347655       -0.7675561529
 H          4.2646692640        4.5028888857       -0.4225714563
 H          0.0276192423        5.3079774346        0.2705372848
 H         -1.3753599896        3.2948089089        0.4678061428
 H          5.3091891612        1.2807896249       -0.6988551541
 H          7.3266305525        2.6719624051       -0.9183626649
