  112
       -179.33543133
 C          6.5032073359        3.8997098720       -2.4669918584
 C          5.3988044833        4.1429237344       -3.2665638151
 C          4.2658489885        3.3598843526       -3.1457963561
 C          4.2199910390        2.3150399381       -2.2255396273
 C          3.0119677583        1.4958643299       -2.0563970455
 C          1.7523501572        2.1082746301       -2.0593646299
 C          0.5999210039        1.4002768190       -1.7893523300
 C          0.7216851470        0.0477133300       -1.5093819232
 C          1.9668539621       -0.6096253567       -1.6083573646
 C          3.1142105629        0.1219577477       -1.8628113033
 C          1.7074716432       -1.9988730744       -1.3419673833
 C          2.5191405880       -3.1158012992       -1.2590930067
 C          1.9574179606       -4.3385697391       -0.9054529040
 C          2.8176457430       -5.5201748845       -0.7443787401
 C          3.8661634917       -5.7663559037       -1.6287047527
 C          4.6976339469       -6.8557168283       -1.4498525413
 C          4.5016812839       -7.7146426541       -0.3811259194
 C          3.4631488955       -7.4804212803        0.5046253110
 C          2.6264280102       -6.3954535734        0.3236153230
 C          0.5800989368       -4.4263736898       -0.6619781149
 C         -0.2485809846       -3.3262416822       -0.7438105107
 C          0.3231231316       -2.1062872276       -1.0727412602
 N         -0.2611261494       -0.8585716713       -1.1618427868
 C         -1.4818786025       -0.4804299905       -0.5711399418
 C         -2.6873332179       -0.9387451241       -1.0835186464
 C         -3.9026286155       -0.5254534963       -0.5424500154
 N         -5.0712843647       -0.9448314377       -1.0247222027
 C         -6.2224366461       -0.5175749815       -0.5201823263
 C         -7.4676424963       -0.9637652596       -1.0490684242
 C         -7.5175621935       -1.8680789377       -2.1235404376
 C         -8.7357232959       -2.2734843364       -2.6055458794
 C         -9.8942611071       -1.7653987662       -2.0002042761
 N         -9.8721803335       -0.9230738470       -1.0016557783
 C         -8.7013220214       -0.5114603721       -0.5148690886
 C         -8.6932078597        0.4196425210        0.5843623877
 N         -9.8567734167        0.8425338998        1.0788798998
 C         -9.8640013733        1.6871905531        2.0756918796
 C         -8.6966901827        2.1866940118        2.6710782079
 C         -7.4857726800        1.7684950264        2.1818870031
 C         -7.4517714770        0.8612158486        1.1092875700
 C         -6.2144619327        0.4048270765        0.5705785503
 N         -5.0560798529        0.8267616693        1.0626835514
 C         -3.8946598478        0.4072041533        0.5633338935
 C         -2.6717873225        0.8260177588        1.0822573334
 C         -1.4734782203        0.3794861298        0.5430959580
 N         -0.2455055906        0.7844877983        1.1003090188
 C          0.7657160630       -0.0883062536        1.4484103296
 C          0.6896687605       -1.4424760478        1.7379031139
 C          1.8613634511       -2.1037640751        2.0399229394
 C          3.0983534892       -1.4456649289        2.0726819709
 C          4.3240115462       -2.2099929188        2.3435913754
 C          5.3431119081       -1.6850776712        3.1360494318
 C          6.4927458219       -2.4137758167        3.3781206956
 C          6.6492878143       -3.6758681790        2.8289149391
 C          5.6445174495       -4.2073066524        2.0375128756
 C          4.4922313548       -3.4826375022        1.8004669989
 C          3.1538393598       -0.0733665708        1.8479510645
 C          1.9887678305        0.6106593331        1.5459495424
 C          1.6893057967        1.9863398995        1.2500108485
 C          2.4681657671        3.1230212619        1.1263046350
 C          1.8644025243        4.3241859900        0.7690804294
 C          2.6768675772        5.5341469549        0.5816733590
 C          2.2291582210        6.7784039428        1.0210289623
 C          2.9964127283        7.9114073938        0.8254295019
 C          4.2197404227        7.8228429538        0.1817115123
 C          4.6739690992        6.5912192435       -0.2597030569
 C          3.9123731571        5.4559122040       -0.0584151823
 C          0.4796332850        4.3701597912        0.5576888101
 C         -0.3140750961        3.2466374511        0.6614096228
 C          0.2993024842        2.0486958211        0.9962643360
 C          5.3394366537        2.0765086147       -1.4295465959
 C          6.4696553554        2.8638131656       -1.5479692013
 H          7.3869259310        4.5138391642       -2.5596824058
 H          5.4204390533        4.9473851638       -3.9872702460
 H          3.4131617841        3.5471599458       -3.7818026886
 H          1.6866458134        3.1716332972       -2.2335890299
 H         -0.3644194659        1.8858189082       -1.7838950395
 H          4.0742843723       -0.3689193858       -1.9145458537
 H          3.5815692336       -3.0285770850       -1.4288162767
 H          4.0165872911       -5.1074989553       -2.4715240374
 H          5.5033407971       -7.0359938322       -2.1468134649
 H          5.1555381682       -8.5623374497       -0.2387440920
 H          3.3076524874       -8.1437732308        1.3431078077
 H          1.8312301028       -6.2083369866        1.0311034580
 H          0.1551346624       -5.3878083374       -0.4141850911
 H         -1.3064429809       -3.4106978159       -0.5438524511
 H         -2.6962008485       -1.5991271450       -1.9360716024
 H         -6.5841505639       -2.2186078098       -2.5399350645
 H         -8.8115633783       -2.9670133332       -3.4284098717
 H        -10.8757342855       -2.0586542701       -2.3484089471
 H        -10.8403256979        1.9914622539        2.4291451453
 H         -8.7603248240        2.8829121596        3.4926679994
 H         -6.5463626330        2.1119507733        2.5904020616
 H         -2.6680910801        1.4867296376        1.9346019992
 H         -0.2573079288       -1.9613311446        1.7301707079
 H          1.8244203790       -3.1573931729        2.2710733474
 H          5.2220967762       -0.7096499435        3.5847345184
 H          7.2707809683       -1.9963913159        4.0010743185
 H          7.5495234705       -4.2418028490        3.0178536229
 H          5.7552169942       -5.1892654825        1.5998798963
 H          3.7223558654       -3.8979039807        1.1692995698
 H          4.0967905577        0.4508202955        1.8840700036
 H          3.5310146223        3.0792636465        1.3087733109
 H          1.2833992211        6.8528997129        1.5381736861
 H          2.6395230649        8.8686286209        1.1773362253
 H          4.8152883950        8.7101888745        0.0252266521
 H          5.6241151877        6.5118347655       -0.7675561529
 H          4.2646692640        4.5028888857       -0.4225714563
 H          0.0276192423        5.3079774346        0.2705372848
 H         -1.3753599896        3.2948089089        0.4678061428
 H          5.3091891612        1.2807896249       -0.6988551541
 H          7.3266305525        2.6719624051       -0.9183626649
  112
       -179.33522047
 C          6.1998976300        4.3991063687       -2.1229323353
 C          5.1371516091        4.5751754731       -2.9919391682
 C          4.0780205958        3.6877603424       -2.9855354892
 C          4.0645917704        2.6024228524       -2.1127550831
 C          2.9084320437        1.7002666757       -2.0245030926
 C          1.6184371911        2.2423002431       -2.0976070264
 C          0.4958202295        1.4852606958       -1.8420518154
 C          0.6783800828        0.1487247690       -1.5221717854
 C          1.9548956715       -0.4512206814       -1.5760352687
 C          3.0723952391        0.3354284851       -1.8037872425
 C          1.7467859430       -1.8497316661       -1.3014613513
 C          2.5936115329       -2.9400987575       -1.2134503467
 C          2.0648681341       -4.1903498385       -0.9039662130
 C          2.9503199405       -5.3585285836       -0.7877437990
 C          4.0279220066       -5.5251565735       -1.6557979044
 C          4.8749710171       -6.6098382404       -1.5296161107
 C          4.6652695788       -7.5465939038       -0.5313744581
 C          3.5974364716       -7.3934087772        0.3372462110
 C          2.7459467733       -6.3125040616        0.2087658317
 C          0.6873058163       -4.3272517240       -0.6851021214
 C         -0.1746670676       -3.2527461213       -0.7573837913
 C          0.3613235776       -2.0111932754       -1.0624419061
 N         -0.2718416085       -0.7905670449       -1.1761324633
 C         -1.5024354474       -0.4395396550       -0.5844318243
 C         -2.7028570896       -0.8876375059       -1.1151138662
 C         -3.9208201544       -0.4964815230       -0.5622617224
 N         -5.0863726166       -0.9033121848       -1.0630433034
 C         -6.2402914019       -0.5090437816       -0.5378497492
 C         -7.4825184421       -0.9376049020       -1.0883143341
 C         -7.5265560840       -1.7735011897       -2.2168922315
 C         -8.7420500734       -2.1601960286       -2.7205426154
 C         -9.9037068101       -1.7033799572       -2.0815314542
 N         -9.8871696954       -0.9264564128       -1.0313039315
 C         -8.7190129270       -0.5338484531       -0.5227898295
 C         -8.7168980980        0.3255597219        0.6333900480
 N         -9.8829639718        0.6908153242        1.1665070976
 C         -9.8955275177        1.4700748253        2.2153004182
 C         -8.7317395330        1.9576701196        2.8274221870
 C         -7.5183927557        1.5981327985        2.2990030614
 C         -7.4785936970        0.7595916604        1.1719918424
 C         -6.2385053834        0.3582669965        0.5967828476
 N         -5.0832715610        0.7775375731        1.0992661659
 C         -3.9192484312        0.3956838045        0.5759947996
 C         -2.6993123664        0.8140561357        1.1043173136
 C         -1.4998268722        0.3920367020        0.5507022189
 N         -0.2676277018        0.7739571942        1.1222844884
 C          0.7008902281       -0.1332992176        1.5055672985
 C          0.5666831015       -1.4780010444        1.8173870970
 C          1.7040540963       -2.1753021591        2.1684809043
 C          2.9621059990       -1.5614282896        2.2300975746
 C          4.1495119592       -2.3522963544        2.5836585488
 C          5.1266950718       -1.8406199091        3.4350515838
 C          6.2414258184       -2.5918929681        3.7574879422
 C          6.4042934407       -3.8624014300        3.2298701890
 C          5.4411255608       -4.3797307979        2.3796851826
 C          4.3223664552       -3.6328496651        2.0636901017
 C          3.0797180742       -0.2026477228        1.9582778740
 C          1.9515697299        0.5144295606        1.5998461508
 C          1.7200842931        1.8875053423        1.2431756687
 C          2.5619913027        2.9659824499        1.0453886913
 C          2.0326879689        4.1680583202        0.5876533274
 C          2.9356632506        5.2723540170        0.2395550587
 C          4.0834004065        5.5276962476        0.9875534883
 C          4.9563959297        6.5336597632        0.6212366655
 C          4.7019622085        7.3039198347       -0.5008062814
 C          3.5630159241        7.0640034363       -1.2500897848
 C          2.6885215355        6.0593117368       -0.8837889055
 C          0.6470636948        4.2863452324        0.4053108794
 C         -0.2118656576        3.2237510210        0.5981788506
 C          0.3360601004        2.0069556181        0.9784835132
 C          5.1509123773        2.4237983503       -1.2580540419
 C          6.2053906893        3.3163755873       -1.2600838745
 H          7.0204032213        5.1009641199       -2.1192724240
 H          5.1324770408        5.4115561119       -3.6755301134
 H          3.2594283225        3.8271958516       -3.6764119384
 H          1.5051435678        3.2939207247       -2.3086549895
 H         -0.4926690517        1.9185033679       -1.8749109171
 H          4.0574064254       -0.1061637384       -1.8107644492
 H          3.6562812201       -2.8150961357       -1.3559909004
 H          4.1892026860       -4.8080010566       -2.4473258236
 H          5.7029949249       -6.7260625418       -2.2135846302
 H          5.3301011365       -8.3918813189       -0.4309749959
 H          3.4296176121       -8.1179393836        1.1211324470
 H          1.9276050595       -6.1927440849        0.9044059320
 H          0.2875296425       -5.3073366088       -0.4711155827
 H         -1.2330407882       -3.3740467912       -0.5806685161
 H         -2.7067647694       -1.5248572746       -1.9851116107
 H         -6.5910191040       -2.0866920946       -2.6573579765
 H         -8.8133269095       -2.8000026287       -3.5861469040
 H        -10.8833628045       -1.9847060391       -2.4447678695
 H        -10.8736292187        1.7281682550        2.5994414147
 H         -8.7997748211        2.5991685196        3.6922562406
 H         -6.5813434611        1.9357198477        2.7179178010
 H         -2.7000280195        1.4531792290        1.9729637532
 H         -0.3984289340       -1.9617767283        1.7916829342
 H          1.6221485301       -3.2215859544        2.4210577321
 H          4.9986084206       -0.8570709885        3.8638391938
 H          6.9870306193       -2.1857456556        4.4259183134
 H          7.2777702909       -4.4458723804        3.4812219933
 H          5.5590955495       -5.3670898700        1.9564665491
 H          3.5841240061       -4.0346620480        1.3881031094
 H          4.0423996250        0.2836328433        2.0044396510
 H          3.6254882349        2.8579151791        1.1888958202
 H          4.2814527200        4.9448574947        1.8751000977
 H          5.8401341074        6.7194169424        1.2144400391
 H          5.3869684586        8.0875736298       -0.7889041664
 H          3.3579886779        7.6603886247       -2.1274026510
 H          1.8137392475        5.8674019666       -1.4878217715
 H          0.2405335224        5.2403634741        0.1038363944
 H         -1.2738208673        3.3285634846        0.4320000032
 H          5.1523526227        1.5889244509       -0.5719208499
 H          7.0339264813        3.1710010807       -0.5817571359
  112
       -179.33460667
 C          4.2993322732        5.6064945365       -5.4826846640
 C          4.5010726968        4.2591298211       -5.7321636501
 C          3.7034690605        3.3108320368       -5.1198854779
 C          2.6835337949        3.6943919016       -4.2516774593
 C          1.8570846543        2.6889539645       -3.5673170136
 C          0.4816367430        2.8991546094       -3.4006443692
 C         -0.3156840831        2.0088123542       -2.7114135534
 C          0.2867920640        0.8830972599       -2.1696975935
 C          1.6693477028        0.6403709142       -2.3440787741
 C          2.4488206540        1.5432289771       -3.0447419530
 C          1.9630015670       -0.5815098232       -1.6440626120
 C          3.1210854508       -1.3085952608       -1.4251366157
 C          3.0563176954       -2.4784385188       -0.6745697446
 C          4.2740887628       -3.2434156000       -0.3719580189
 C          4.4457711022       -3.8162554453        0.8870565546
 C          5.5901855089       -4.5283322628        1.1908674966
 C          6.5829799756       -4.6871628631        0.2382003961
 C          6.4226197364       -4.1260820989       -1.0181389442
 C          5.2808282090       -3.4079337353       -1.3210844279
 C          1.8177063336       -2.9311561850       -0.1999089873
 C          0.6539424748       -2.2206337930       -0.4033292791
 C          0.7409355323       -1.0180527882       -1.0885323304
 N         -0.2606781850       -0.1181982939       -1.3935536193
 C         -1.4782179651       -0.0462825824       -0.6922049108
 C         -2.6873533231       -0.0480719022       -1.3734386410
 C         -3.8994603485       -0.0326242482       -0.6873004918
 N         -5.0710500813       -0.0340641282       -1.3207793087
 C         -6.2189666236       -0.0511160773       -0.6543821554
 C         -7.4671732189       -0.0561097551       -1.3408234270
 C         -7.5232635980       -0.0419287125       -2.7448981033
 C         -8.7441227037       -0.0464786371       -3.3693741182
 C         -9.8990561813       -0.0653708792       -2.5740611043
 N         -9.8712256590       -0.0798170739       -1.2679079345
 C         -8.6976110208       -0.0762528342       -0.6355352827
 C         -8.6828135710       -0.0939899235        0.8048579129
 N         -9.8432553803       -0.1186461424        1.4605921365
 C         -9.8446548563       -0.1338535862        2.7670525956
 C         -8.6738883569       -0.1244468339        3.5390723126
 C         -7.4660064615       -0.0997574825        2.8902828882
 C         -7.4382708606       -0.0849155662        1.4853558800
 C         -6.2042569899       -0.0626837920        0.7739714620
 N         -5.0427733856       -0.0561801360        1.4167265826
 C         -3.8845338967       -0.0365622224        0.7593361985
 C         -2.6588131249       -0.0001245736        1.4200778458
 C         -1.4641760337        0.0178505850        0.7138430982
 N         -0.2336765204        0.1104669828        1.3897199054
 C          0.3466845117       -0.8801507460        2.1554523713
 C         -0.2249397278       -2.0160536879        2.7091529110
 C          0.6010386761       -2.8904315010        3.3848869682
 C          1.9751241153       -2.6545351950        3.5264361120
 C          2.8310271481       -3.6422901339        4.2003613113
 C          3.8563296230       -3.2366994458        5.0520444145
 C          4.6791971710       -4.1678523921        5.6570763034
 C          4.4979602509       -5.5197117156        5.4163181484
 C          3.4832305189       -5.9350495676        4.5702889012
 C          2.6547717916       -5.0058002550        3.9702047121
 C          2.5362388456       -1.4993826545        2.9910191561
 C          1.7276429665       -0.6120297104        2.3035916778
 C          1.9854750964        0.6147445958        1.5979581659
 C          3.1251558745        1.3643717215        1.3589072962
 C          3.0239764297        2.5330141021        0.6106018721
 C          4.2198357045        3.3246743035        0.2894982832
 C          4.3613446816        3.8977809586       -0.9730327521
 C          5.4828465767        4.6390081538       -1.2924118611
 C          6.4822378574        4.8267948332       -0.3522580804
 C          6.3519561395        4.2652233695        0.9073062926
 C          5.2334112903        3.5176080794        1.2257449417
 C          1.7688045713        2.9613591067        0.1574098620
 C          0.6227774755        2.2287069182        0.3817888226
 C          0.7452803666        1.0283085915        1.0654182810
 C          2.4860338344        5.0535774223       -4.0132848090
 C          3.2891641199        6.0000449754       -4.6208961716
 H          4.9268651227        6.3465412080       -5.9570687216
 H          5.2844404164        3.9466160740       -6.4073798116
 H          3.8573889940        2.2620966857       -5.3286102237
 H          0.0327641619        3.7795243204       -3.8364089498
 H         -1.3726270249        2.1911459883       -2.5860575743
 H          3.5109547754        1.3793902035       -3.1471442952
 H          4.0662122572       -0.9541171209       -1.8073105048
 H          3.6847147367       -3.6832561024        1.6398352406
 H          5.7046535657       -4.9572690121        2.1762608707
 H          7.4772997254       -5.2454628357        0.4727066202
 H          7.1916188875       -4.2514786528       -1.7668174061
 H          5.1563832267       -2.9891900186       -2.3092756868
 H          1.7734809465       -3.8702934797        0.3302510897
 H         -0.2950733969       -2.5895759439       -0.0439847349
 H         -2.7011682342       -0.0944309362       -2.4507657334
 H         -6.5923494621       -0.0264636501       -3.2930876853
 H         -8.8246849041       -0.0348807937       -4.4450569571
 H        -10.8826109545       -0.0681357835       -3.0250412586
 H        -10.8187910799       -0.1551096797        3.2375535345
 H         -8.7325816272       -0.1376097449        4.6161656160
 H         -6.5242571261       -0.0925138531        3.4199001830
 H         -2.6508672045        0.0464077365        2.4974806697
 H         -1.2804691617       -2.2178659174        2.6033994657
 H          0.1765118486       -3.7781416558        3.8300170939
 H          3.9943746507       -2.1844600912        5.2541148807
 H          5.4661570309       -3.8383767849        6.3200357076
 H          5.1448217269       -6.2463669430        5.8854299703
 H          3.3399258007       -6.9877624107        4.3737797578
 H          1.8779448941       -5.3370155926        3.2958904931
 H          3.5968954955       -1.3161329052        3.0737712076
 H          4.0837482687        1.0289291725        1.7245593986
 H          3.5947321408        3.7427446987       -1.7159543112
 H          5.5741503040        5.0680804667       -2.2800927338
 H          7.3583142055        5.4084064698       -0.5987284143
 H          7.1262572987        4.4136075999        1.6464839417
 H          5.1316655061        3.0982140847        2.2162293906
 H          1.6973652287        3.8992941951       -0.3719744204
 H         -0.3395655551        2.5794720613        0.0400870359
 H          1.7131282405        5.3679202265       -3.3265267767
 H          3.1303267223        7.0491448957       -4.4171054513
