  112
  -179.335431330000       0.251071130727000      !
 C          6.5032073359        3.8997098720       -2.4669918584
 C          5.3988044833        4.1429237344       -3.2665638151
 C          4.2658489885        3.3598843526       -3.1457963561
 C          4.2199910390        2.3150399381       -2.2255396273
 C          3.0119677583        1.4958643299       -2.0563970455
 C          1.7523501572        2.1082746301       -2.0593646299
 C          0.5999210039        1.4002768190       -1.7893523300
 C          0.7216851470        0.0477133300       -1.5093819232
 C          1.9668539621       -0.6096253567       -1.6083573646
 C          3.1142105629        0.1219577477       -1.8628113033
 C          1.7074716432       -1.9988730744       -1.3419673833
 C          2.5191405880       -3.1158012992       -1.2590930067
 C          1.9574179606       -4.3385697391       -0.9054529040
 C          2.8176457430       -5.5201748845       -0.7443787401
 C          3.8661634917       -5.7663559037       -1.6287047527
 C          4.6976339469       -6.8557168283       -1.4498525413
 C          4.5016812839       -7.7146426541       -0.3811259194
 C          3.4631488955       -7.4804212803        0.5046253110
 C          2.6264280102       -6.3954535734        0.3236153230
 C          0.5800989368       -4.4263736898       -0.6619781149
 C         -0.2485809846       -3.3262416822       -0.7438105107
 C          0.3231231316       -2.1062872276       -1.0727412602
 N         -0.2611261494       -0.8585716713       -1.1618427868
 C         -1.4818786025       -0.4804299905       -0.5711399418
 C         -2.6873332179       -0.9387451241       -1.0835186464
 C         -3.9026286155       -0.5254534963       -0.5424500154
 N         -5.0712843647       -0.9448314377       -1.0247222027
 C         -6.2224366461       -0.5175749815       -0.5201823263
 C         -7.4676424963       -0.9637652596       -1.0490684242
 C         -7.5175621935       -1.8680789377       -2.1235404376
 C         -8.7357232959       -2.2734843364       -2.6055458794
 C         -9.8942611071       -1.7653987662       -2.0002042761
 N         -9.8721803335       -0.9230738470       -1.0016557783
 C         -8.7013220214       -0.5114603721       -0.5148690886
 C         -8.6932078597        0.4196425210        0.5843623877
 N         -9.8567734167        0.8425338998        1.0788798998
 C         -9.8640013733        1.6871905531        2.0756918796
 C         -8.6966901827        2.1866940118        2.6710782079
 C         -7.4857726800        1.7684950264        2.1818870031
 C         -7.4517714770        0.8612158486        1.1092875700
 C         -6.2144619327        0.4048270765        0.5705785503
 N         -5.0560798529        0.8267616693        1.0626835514
 C         -3.8946598478        0.4072041533        0.5633338935
 C         -2.6717873225        0.8260177588        1.0822573334
 C         -1.4734782203        0.3794861298        0.5430959580
 N         -0.2455055906        0.7844877983        1.1003090188
 C          0.7657160630       -0.0883062536        1.4484103296
 C          0.6896687605       -1.4424760478        1.7379031139
 C          1.8613634511       -2.1037640751        2.0399229394
 C          3.0983534892       -1.4456649289        2.0726819709
 C          4.3240115462       -2.2099929188        2.3435913754
 C          5.3431119081       -1.6850776712        3.1360494318
 C          6.4927458219       -2.4137758167        3.3781206956
 C          6.6492878143       -3.6758681790        2.8289149391
 C          5.6445174495       -4.2073066524        2.0375128756
 C          4.4922313548       -3.4826375022        1.8004669989
 C          3.1538393598       -0.0733665708        1.8479510645
 C          1.9887678305        0.6106593331        1.5459495424
 C          1.6893057967        1.9863398995        1.2500108485
 C          2.4681657671        3.1230212619        1.1263046350
 C          1.8644025243        4.3241859900        0.7690804294
 C          2.6768675772        5.5341469549        0.5816733590
 C          2.2291582210        6.7784039428        1.0210289623
 C          2.9964127283        7.9114073938        0.8254295019
 C          4.2197404227        7.8228429538        0.1817115123
 C          4.6739690992        6.5912192435       -0.2597030569
 C          3.9123731571        5.4559122040       -0.0584151823
 C          0.4796332850        4.3701597912        0.5576888101
 C         -0.3140750961        3.2466374511        0.6614096228
 C          0.2993024842        2.0486958211        0.9962643360
 C          5.3394366537        2.0765086147       -1.4295465959
 C          6.4696553554        2.8638131656       -1.5479692013
 H          7.3869259310        4.5138391642       -2.5596824058
 H          5.4204390533        4.9473851638       -3.9872702460
 H          3.4131617841        3.5471599458       -3.7818026886
 H          1.6866458134        3.1716332972       -2.2335890299
 H         -0.3644194659        1.8858189082       -1.7838950395
 H          4.0742843723       -0.3689193858       -1.9145458537
 H          3.5815692336       -3.0285770850       -1.4288162767
 H          4.0165872911       -5.1074989553       -2.4715240374
 H          5.5033407971       -7.0359938322       -2.1468134649
 H          5.1555381682       -8.5623374497       -0.2387440920
 H          3.3076524874       -8.1437732308        1.3431078077
 H          1.8312301028       -6.2083369866        1.0311034580
 H          0.1551346624       -5.3878083374       -0.4141850911
 H         -1.3064429809       -3.4106978159       -0.5438524511
 H         -2.6962008485       -1.5991271450       -1.9360716024
 H         -6.5841505639       -2.2186078098       -2.5399350645
 H         -8.8115633783       -2.9670133332       -3.4284098717
 H        -10.8757342855       -2.0586542701       -2.3484089471
 H        -10.8403256979        1.9914622539        2.4291451453
 H         -8.7603248240        2.8829121596        3.4926679994
 H         -6.5463626330        2.1119507733        2.5904020616
 H         -2.6680910801        1.4867296376        1.9346019992
 H         -0.2573079288       -1.9613311446        1.7301707079
 H          1.8244203790       -3.1573931729        2.2710733474
 H          5.2220967762       -0.7096499435        3.5847345184
 H          7.2707809683       -1.9963913159        4.0010743185
 H          7.5495234705       -4.2418028490        3.0178536229
 H          5.7552169942       -5.1892654825        1.5998798963
 H          3.7223558654       -3.8979039807        1.1692995698
 H          4.0967905577        0.4508202955        1.8840700036
 H          3.5310146223        3.0792636465        1.3087733109
 H          1.2833992211        6.8528997129        1.5381736861
 H          2.6395230649        8.8686286209        1.1773362253
 H          4.8152883950        8.7101888745        0.0252266521
 H          5.6241151877        6.5118347655       -0.7675561529
 H          4.2646692640        4.5028888857       -0.4225714563
 H          0.0276192423        5.3079774346        0.2705372848
 H         -1.3753599896        3.2948089089        0.4678061428
 H          5.3091891612        1.2807896249       -0.6988551541
 H          7.3266305525        2.6719624051       -0.9183626649
  112
  -179.335415860000       0.246994486407969      !
 C          6.4655734049        3.9234570818       -2.5440098722
 C          5.3474130633        4.1595407955       -3.3263730527
 C          4.2215664587        3.3693677338       -3.1880074301
 C          4.1959541296        2.3250061998       -2.2662420079
 C          2.9944256852        1.5008025258       -2.0768212937
 C          1.7322744238        2.1080574874       -2.0671889308
 C          0.5857733069        1.3960949911       -1.7833165924
 C          0.7160980521        0.0448271869       -1.5011470757
 C          1.9633109407       -0.6074505350       -1.6081219406
 C          3.1046714889        0.1281895890       -1.8778475419
 C          1.7117461441       -1.9971600558       -1.3357999484
 C          2.5281696541       -3.1110419741       -1.2568172217
 C          1.9734235535       -4.3355396743       -0.8982464459
 C          2.8380959760       -5.5148164664       -0.7435611799
 C          3.8809402183       -5.7579918487       -1.6352409678
 C          4.7152564680       -6.8463563602       -1.4638444950
 C          4.5276215467       -7.7077216285       -0.3955324671
 C          3.4946756266       -7.4766507720        0.4975032374
 C          2.6553950679       -6.3923683135        0.3240914907
 C          0.5980553037       -4.4281467590       -0.6452952470
 C         -0.2352902579       -3.3312929903       -0.7226631735
 C          0.3296575311       -2.1096254849       -1.0569096863
 N         -0.2600421557       -0.8647311588       -1.1448698669
 C         -1.4818788534       -0.4888650204       -0.5549541649
 C         -2.6865527393       -0.9453021911       -1.0705618672
 C         -3.9024558493       -0.5289482068       -0.5333666745
 N         -5.0703962155       -0.9407636677       -1.0235386637
 C         -6.2221083268       -0.5107030355       -0.5229902741
 C         -7.4663490400       -0.9440628600       -1.0647968471
 C         -7.5140330215       -1.8334443407       -2.1517472440
 C         -8.7312051330       -2.2255387939       -2.6470325119
 C         -9.8908187864       -1.7194544599       -2.0421225340
 N         -9.8708566292       -0.8909820552       -1.0319721187
 C         -8.7008808263       -0.4921692607       -0.5324356307
 C         -8.6946594823        0.4250527821        0.5784234199
 N         -9.8589780230        0.8455233278        1.0731566524
 C         -9.8680383251        1.6781347901        2.0799949620
 C         -8.7017147161        2.1671814656        2.6860491680
 C         -7.4899463062        1.7514376740        2.1968069506
 C         -7.4540335693        0.8566917352        1.1137631428
 C         -6.2158489352        0.4025698509        0.5752405464
 N         -5.0580550397        0.8188473636        1.0737923833
 C         -3.8959783504        0.4003382168        0.5753648231
 C         -2.6736582694        0.8174018319        1.0972597400
 C         -1.4747613645        0.3714686993        0.5588991987
 N         -0.2465584021        0.7770433996        1.1153829980
 C          0.7641674293       -0.0962452268        1.4641241418
 C          0.6872383822       -1.4499335982        1.7557557755
 C          1.8584555110       -2.1112950700        2.0598113757
 C          3.0953896275       -1.4533289245        2.0938697586
 C          4.3203604606       -2.2168552957        2.3703646176
 C          5.3321152998       -1.6939531423        3.1734864058
 C          6.4813520588       -2.4216448298        3.4203312467
 C          6.6445320134       -3.6803924037        2.8653761985
 C          5.6468667067       -4.2097203186        2.0636019582
 C          4.4948216115       -3.4861223933        1.8217392548
 C          3.1522768457       -0.0819098615        1.8651749554
 C          1.9879422693        0.6016524444        1.5592766753
 C          1.6899229235        1.9766487929        1.2596298275
 C          2.4705875117        3.1115253911        1.1315099590
 C          1.8678517459        4.3130168963        0.7743457614
 C          2.6843557112        5.5201809894        0.5853535376
 C          3.9106002222        5.4385360461       -0.0717721741
 C          4.6791108125        6.5695481098       -0.2703752325
 C          4.2411209375        7.7996792540        0.1914254312
 C          3.0263535467        7.8915358809        0.8507044278
 C          2.2515681957        6.7629600027        1.0428641922
 C          0.4827344411        4.3617254471        0.5671585495
 C         -0.3125367866        3.2393180554        0.6734501663
 C          0.2996435756        2.0406159597        1.0080463687
 C          5.3294551117        2.0932487421       -1.4883589199
 C          6.4529713641        2.8871257070       -1.6250105592
 H          7.3434641934        4.5437763872       -2.6497398994
 H          5.3526743898        4.9641366835       -4.0472454069
 H          3.3584004364        3.5508301881       -3.8114326599
 H          1.6599765999        3.1704486990       -2.2445122413
 H         -0.3806467265        1.8773342599       -1.7702226389
 H          4.0661251200       -0.3588844989       -1.9389139347
 H          3.5893529768       -3.0198153461       -1.4327755699
 H          4.0245169445       -5.0975040551       -2.4779490872
 H          5.5165237015       -7.0243942668       -2.1664422237
 H          5.1836643957       -8.5548300642       -0.2592646642
 H          3.3456662558       -8.1417040974        1.3358618805
 H          1.8647690103       -6.2078748810        1.0373484053
 H          0.1782860220       -5.3911287327       -0.3945171352
 H         -1.2915771648       -3.4194576163       -0.5161622406
 H         -2.6942614822       -1.6048747780       -1.9237491197
 H         -6.5798987736       -2.1835034851       -2.5667681780
 H         -8.8054540090       -2.9064102584       -3.4805004849
 H        -10.8716719938       -2.0036806624       -2.3998274435
 H        -10.8450413810        1.9807906829        2.4331153356
 H         -8.7667035310        2.8537240166        3.5156280590
 H         -6.5511120678        2.0870148640        2.6132502015
 H         -2.6708675731        1.4770846820        1.9503925730
 H         -0.2600394807       -1.9681473843        1.7489290232
 H          1.8212826447       -3.1646240353        2.2924948812
 H          5.2054797827       -0.7208230659        3.6256877811
 H          7.2537832144       -2.0063713683        4.0516781454
 H          7.5446338103       -4.2454135980        3.0579580996
 H          5.7634055459       -5.1886394802        1.6207082473
 H          3.7302282642       -3.8989370403        1.1825659263
 H          4.0955527610        0.4416949859        1.9018180014
 H          3.5339819976        3.0664571061        1.3102729009
 H          4.2503409015        4.4859915580       -0.4490484499
 H          5.6221149875        6.4879377712       -0.7910817360
 H          4.8424431827        8.6837034121        0.0376166002
 H          2.6824122784        8.8477557167        1.2178931203
 H          1.3118509846        6.8391784473        1.5707487824
 H          0.0318702128        5.3007883217        0.2820797879
 H         -1.3742306420        3.2888764487        0.4820579487
 H          5.3153876623        1.2985362277       -0.7561078338
 H          7.3201840214        2.7017992116       -1.0075340033
  112
  -179.335220470000       0.200859432789074      !
 C          6.1998976300        4.3991063687       -2.1229323353
 C          5.1371516091        4.5751754731       -2.9919391682
 C          4.0780205958        3.6877603424       -2.9855354892
 C          4.0645917704        2.6024228524       -2.1127550831
 C          2.9084320437        1.7002666757       -2.0245030926
 C          1.6184371911        2.2423002431       -2.0976070264
 C          0.4958202295        1.4852606958       -1.8420518154
 C          0.6783800828        0.1487247690       -1.5221717854
 C          1.9548956715       -0.4512206814       -1.5760352687
 C          3.0723952391        0.3354284851       -1.8037872425
 C          1.7467859430       -1.8497316661       -1.3014613513
 C          2.5936115329       -2.9400987575       -1.2134503467
 C          2.0648681341       -4.1903498385       -0.9039662130
 C          2.9503199405       -5.3585285836       -0.7877437990
 C          4.0279220066       -5.5251565735       -1.6557979044
 C          4.8749710171       -6.6098382404       -1.5296161107
 C          4.6652695788       -7.5465939038       -0.5313744581
 C          3.5974364716       -7.3934087772        0.3372462110
 C          2.7459467733       -6.3125040616        0.2087658317
 C          0.6873058163       -4.3272517240       -0.6851021214
 C         -0.1746670676       -3.2527461213       -0.7573837913
 C          0.3613235776       -2.0111932754       -1.0624419061
 N         -0.2718416085       -0.7905670449       -1.1761324633
 C         -1.5024354474       -0.4395396550       -0.5844318243
 C         -2.7028570896       -0.8876375059       -1.1151138662
 C         -3.9208201544       -0.4964815230       -0.5622617224
 N         -5.0863726166       -0.9033121848       -1.0630433034
 C         -6.2402914019       -0.5090437816       -0.5378497492
 C         -7.4825184421       -0.9376049020       -1.0883143341
 C         -7.5265560840       -1.7735011897       -2.2168922315
 C         -8.7420500734       -2.1601960286       -2.7205426154
 C         -9.9037068101       -1.7033799572       -2.0815314542
 N         -9.8871696954       -0.9264564128       -1.0313039315
 C         -8.7190129270       -0.5338484531       -0.5227898295
 C         -8.7168980980        0.3255597219        0.6333900480
 N         -9.8829639718        0.6908153242        1.1665070976
 C         -9.8955275177        1.4700748253        2.2153004182
 C         -8.7317395330        1.9576701196        2.8274221870
 C         -7.5183927557        1.5981327985        2.2990030614
 C         -7.4785936970        0.7595916604        1.1719918424
 C         -6.2385053834        0.3582669965        0.5967828476
 N         -5.0832715610        0.7775375731        1.0992661659
 C         -3.9192484312        0.3956838045        0.5759947996
 C         -2.6993123664        0.8140561357        1.1043173136
 C         -1.4998268722        0.3920367020        0.5507022189
 N         -0.2676277018        0.7739571942        1.1222844884
 C          0.7008902281       -0.1332992176        1.5055672985
 C          0.5666831015       -1.4780010444        1.8173870970
 C          1.7040540963       -2.1753021591        2.1684809043
 C          2.9621059990       -1.5614282896        2.2300975746
 C          4.1495119592       -2.3522963544        2.5836585488
 C          5.1266950718       -1.8406199091        3.4350515838
 C          6.2414258184       -2.5918929681        3.7574879422
 C          6.4042934407       -3.8624014300        3.2298701890
 C          5.4411255608       -4.3797307979        2.3796851826
 C          4.3223664552       -3.6328496651        2.0636901017
 C          3.0797180742       -0.2026477228        1.9582778740
 C          1.9515697299        0.5144295606        1.5998461508
 C          1.7200842931        1.8875053423        1.2431756687
 C          2.5619913027        2.9659824499        1.0453886913
 C          2.0326879689        4.1680583202        0.5876533274
 C          2.9356632506        5.2723540170        0.2395550587
 C          4.0834004065        5.5276962476        0.9875534883
 C          4.9563959297        6.5336597632        0.6212366655
 C          4.7019622085        7.3039198347       -0.5008062814
 C          3.5630159241        7.0640034363       -1.2500897848
 C          2.6885215355        6.0593117368       -0.8837889055
 C          0.6470636948        4.2863452324        0.4053108794
 C         -0.2118656576        3.2237510210        0.5981788506
 C          0.3360601004        2.0069556181        0.9784835132
 C          5.1509123773        2.4237983503       -1.2580540419
 C          6.2053906893        3.3163755873       -1.2600838745
 H          7.0204032213        5.1009641199       -2.1192724240
 H          5.1324770408        5.4115561119       -3.6755301134
 H          3.2594283225        3.8271958516       -3.6764119384
 H          1.5051435678        3.2939207247       -2.3086549895
 H         -0.4926690517        1.9185033679       -1.8749109171
 H          4.0574064254       -0.1061637384       -1.8107644492
 H          3.6562812201       -2.8150961357       -1.3559909004
 H          4.1892026860       -4.8080010566       -2.4473258236
 H          5.7029949249       -6.7260625418       -2.2135846302
 H          5.3301011365       -8.3918813189       -0.4309749959
 H          3.4296176121       -8.1179393836        1.1211324470
 H          1.9276050595       -6.1927440849        0.9044059320
 H          0.2875296425       -5.3073366088       -0.4711155827
 H         -1.2330407882       -3.3740467912       -0.5806685161
 H         -2.7067647694       -1.5248572746       -1.9851116107
 H         -6.5910191040       -2.0866920946       -2.6573579765
 H         -8.8133269095       -2.8000026287       -3.5861469040
 H        -10.8833628045       -1.9847060391       -2.4447678695
 H        -10.8736292187        1.7281682550        2.5994414147
 H         -8.7997748211        2.5991685196        3.6922562406
 H         -6.5813434611        1.9357198477        2.7179178010
 H         -2.7000280195        1.4531792290        1.9729637532
 H         -0.3984289340       -1.9617767283        1.7916829342
 H          1.6221485301       -3.2215859544        2.4210577321
 H          4.9986084206       -0.8570709885        3.8638391938
 H          6.9870306193       -2.1857456556        4.4259183134
 H          7.2777702909       -4.4458723804        3.4812219933
 H          5.5590955495       -5.3670898700        1.9564665491
 H          3.5841240061       -4.0346620480        1.3881031094
 H          4.0423996250        0.2836328433        2.0044396510
 H          3.6254882349        2.8579151791        1.1888958202
 H          4.2814527200        4.9448574947        1.8751000977
 H          5.8401341074        6.7194169424        1.2144400391
 H          5.3869684586        8.0875736298       -0.7889041664
 H          3.3579886779        7.6603886247       -2.1274026510
 H          1.8137392475        5.8674019666       -1.4878217715
 H          0.2405335224        5.2403634741        0.1038363944
 H         -1.2738208673        3.3285634846        0.4320000032
 H          5.1523526227        1.5889244509       -0.5719208499
 H          7.0339264813        3.1710010807       -0.5817571359
  112
  -179.335198130000       0.196166786970305      !
 C          6.2004662441        4.3707046281       -1.9287278659
 C          5.1581869939        4.5749391333       -2.8161423878
 C          4.1035411694        3.6837218738       -2.8689555780
 C          4.0740908804        2.5667058497       -2.0378400621
 C          2.9149525295        1.6648395981       -1.9979387552
 C          1.6287409595        2.2158029259       -2.0725550730
 C          0.5002248112        1.4612231842       -1.8372414965
 C          0.6739656467        0.1194060915       -1.5354191464
 C          1.9456372767       -0.4894432154       -1.5992816700
 C          3.0692571198        0.2943030168       -1.8072140826
 C          1.7270158037       -1.8896082815       -1.3406593200
 C          2.5660502177       -2.9868942989       -1.2615256684
 C          2.0293859076       -4.2330916360       -0.9499309547
 C          2.9066595254       -5.4068350029       -0.8267222996
 C          3.9737391381       -5.5962864259       -1.7025414558
 C          4.8117059850       -6.6871104637       -1.5676444446
 C          4.6036429981       -7.6053728025       -0.5520674922
 C          3.5470436764       -7.4280635937        0.3256145510
 C          2.7042739836       -6.3415834799        0.1882054023
 C          0.6518001241       -4.3614831385       -0.7270113464
 C         -0.2029375707       -3.2810712395       -0.7948708792
 C          0.3413862597       -2.0422923981       -1.0962882493
 N         -0.2828475300       -0.8157233449       -1.1954193182
 C         -1.5044285073       -0.4586337106       -0.5901790619
 C         -2.7114406086       -0.9111561070       -1.1024412828
 C         -3.9232815607       -0.5110468278       -0.5430753100
 N         -5.0941911052       -0.9294002750       -1.0214274968
 C         -6.2421795261       -0.5181612044       -0.4960970644
 C         -7.4901225831       -0.9666386847       -1.0168104869
 C         -7.5456380461       -1.8532770765       -2.1056137553
 C         -8.7660476342       -2.2614598740       -2.5795262226
 C         -9.9212669994       -1.7734902341       -1.9519390457
 N         -9.8940922576       -0.9486384247       -0.9389024220
 C         -8.7209278858       -0.5350896098       -0.4593558534
 C         -8.7067596173        0.3767640495        0.6558639334
 N         -9.8673797486        0.7784955258        1.1744421055
 C         -9.8691306698        1.6051146454        2.1863185125
 C         -8.6986219513        2.1066527531        2.7737155000
 C         -7.4906307617        1.7103455404        2.2596785648
 C         -7.4625629526        0.8222314321        1.1709870294
 C         -6.2281591637        0.3867095851        0.6085259584
 N         -5.0673933337        0.8098947299        1.0948582066
 C         -3.9091594590        0.4039097122        0.5767072682
 C         -2.6832249256        0.8196900330        1.0924971595
 C         -1.4890572798        0.3825390164        0.5382284127
 N         -0.2542457493        0.7662658605        1.1010197885
 C          0.7263795103       -0.1340346292        1.4697657465
 C          0.6115525541       -1.4842272863        1.7661018363
 C          1.7609381137       -2.1731832219        2.0938047165
 C          3.0135070195       -1.5468085699        2.1466059965
 C          4.2181958587       -2.3303401686        2.4548506599
 C          5.2203600077       -1.8182360804        3.2767411756
 C          6.3556812079       -2.5593718530        3.5465415325
 C          6.5142622540       -3.8206824398        2.9960391902
 C          5.5254092933       -4.3396622657        2.1770314973
 C          4.3868040299       -3.6026094588        1.9129241351
 C          3.1101881315       -0.1814041776        1.9005029535
 C          1.9692925911        0.5278491451        1.5681833306
 C          1.7192887306        1.9032889133        1.2352431009
 C          2.5477526149        2.9954128889        1.0556891381
 C          2.0039554552        4.1957147166        0.6117434057
 C          2.8937897599        5.3166783207        0.2837254984
 C          2.6528934316        6.1034397769       -0.8407049312
 C          3.5164252589        7.1248793208       -1.1870800989
 C          4.6363644337        7.3821930355       -0.4154110930
 C          4.8838150149        6.6120057407        0.7083533284
 C          4.0230217104        5.5881287498        1.0535815788
 C          0.6179701860        4.2977954483        0.4235347775
 C         -0.2281438124        3.2227384315        0.6036132993
 C          0.3338009088        2.0089243396        0.9730411928
 C          5.1414677652        2.3591897203       -1.1659549040
 C          6.1916569701        3.2551659200       -1.1090986525
 H          7.0163645165        5.0761140381       -1.8778835008
 H          5.1658143145        5.4370710147       -3.4665416829
 H          3.3003915912        3.8464634182       -3.5726627385
 H          1.5230769754        3.2720637504       -2.2632106645
 H         -0.4856089659        1.9006557414       -1.8670642386
 H          4.0517836852       -0.1528180414       -1.8154899663
 H          3.6289615164       -2.8698112919       -1.4092671278
 H          4.1331818471       -4.8919597880       -2.5058735235
 H          5.6313976909       -6.8226837928       -2.2582745923
 H          5.2615874368       -8.4551483610       -0.4444079222
 H          3.3816342880       -8.1378086201        1.1233186397
 H          1.8943902392       -6.2015530284        0.8899540040
 H          0.2471828706       -5.3393650688       -0.5120322436
 H         -1.2613031522       -3.3954319635       -0.6138627912
 H         -2.7253759030       -1.5586353563       -1.9647478585
 H         -6.6145027777       -2.1888020800       -2.5390266876
 H         -8.8452807452       -2.9414642271       -3.4133022081
 H        -10.9048380862       -2.0704416767       -2.2913694838
 H        -10.8435527706        1.8920896095        2.5590681355
 H         -8.7574351455        2.7875439550        3.6084061223
 H         -6.5486739977        2.0563231927        2.6602629568
 H         -2.6746925609        1.4700759411        1.9527510271
 H         -0.3479424215       -1.9792704712        1.7444617201
 H          1.6937492047       -3.2239588522        2.3316073038
 H          5.0968093656       -0.8422290657        3.7236720953
 H          7.1213961046       -2.1521567176        4.1911624368
 H          7.4044678363       -4.3953631183        3.2054129291
 H          5.6386652661       -5.3200928309        1.7368910218
 H          3.6289457405       -4.0057000096        1.2603564446
 H          4.0666613446        0.3172112868        1.9434434468
 H          3.6122734283        2.8999177019        1.2009201600
 H          1.7931068436        5.8973994695       -1.4612494726
 H          3.3167660994        7.7210780556       -2.0659479739
 H          5.3121128899        8.1797894116       -0.6869555279
 H          5.7525553920        6.8114689189        1.3192310515
 H          4.2152191230        5.0033733906        1.9409558280
 H          0.2007476838        5.2493118623        0.1286661739
 H         -1.2907379905        3.3161840559        0.4349108897
 H          5.1298633040        1.4992648824       -0.5119194876
 H          7.0052741262        3.0870470582       -0.4182122774
  112
  -179.334606670000       0.104908163105651      !
 C          4.2993322732        5.6064945365       -5.4826846640
 C          4.5010726968        4.2591298211       -5.7321636501
 C          3.7034690605        3.3108320368       -5.1198854779
 C          2.6835337949        3.6943919016       -4.2516774593
 C          1.8570846543        2.6889539645       -3.5673170136
 C          0.4816367430        2.8991546094       -3.4006443692
 C         -0.3156840831        2.0088123542       -2.7114135534
 C          0.2867920640        0.8830972599       -2.1696975935
 C          1.6693477028        0.6403709142       -2.3440787741
 C          2.4488206540        1.5432289771       -3.0447419530
 C          1.9630015670       -0.5815098232       -1.6440626120
 C          3.1210854508       -1.3085952608       -1.4251366157
 C          3.0563176954       -2.4784385188       -0.6745697446
 C          4.2740887628       -3.2434156000       -0.3719580189
 C          4.4457711022       -3.8162554453        0.8870565546
 C          5.5901855089       -4.5283322628        1.1908674966
 C          6.5829799756       -4.6871628631        0.2382003961
 C          6.4226197364       -4.1260820989       -1.0181389442
 C          5.2808282090       -3.4079337353       -1.3210844279
 C          1.8177063336       -2.9311561850       -0.1999089873
 C          0.6539424748       -2.2206337930       -0.4033292791
 C          0.7409355323       -1.0180527882       -1.0885323304
 N         -0.2606781850       -0.1181982939       -1.3935536193
 C         -1.4782179651       -0.0462825824       -0.6922049108
 C         -2.6873533231       -0.0480719022       -1.3734386410
 C         -3.8994603485       -0.0326242482       -0.6873004918
 N         -5.0710500813       -0.0340641282       -1.3207793087
 C         -6.2189666236       -0.0511160773       -0.6543821554
 C         -7.4671732189       -0.0561097551       -1.3408234270
 C         -7.5232635980       -0.0419287125       -2.7448981033
 C         -8.7441227037       -0.0464786371       -3.3693741182
 C         -9.8990561813       -0.0653708792       -2.5740611043
 N         -9.8712256590       -0.0798170739       -1.2679079345
 C         -8.6976110208       -0.0762528342       -0.6355352827
 C         -8.6828135710       -0.0939899235        0.8048579129
 N         -9.8432553803       -0.1186461424        1.4605921365
 C         -9.8446548563       -0.1338535862        2.7670525956
 C         -8.6738883569       -0.1244468339        3.5390723126
 C         -7.4660064615       -0.0997574825        2.8902828882
 C         -7.4382708606       -0.0849155662        1.4853558800
 C         -6.2042569899       -0.0626837920        0.7739714620
 N         -5.0427733856       -0.0561801360        1.4167265826
 C         -3.8845338967       -0.0365622224        0.7593361985
 C         -2.6588131249       -0.0001245736        1.4200778458
 C         -1.4641760337        0.0178505850        0.7138430982
 N         -0.2336765204        0.1104669828        1.3897199054
 C          0.3466845117       -0.8801507460        2.1554523713
 C         -0.2249397278       -2.0160536879        2.7091529110
 C          0.6010386761       -2.8904315010        3.3848869682
 C          1.9751241153       -2.6545351950        3.5264361120
 C          2.8310271481       -3.6422901339        4.2003613113
 C          3.8563296230       -3.2366994458        5.0520444145
 C          4.6791971710       -4.1678523921        5.6570763034
 C          4.4979602509       -5.5197117156        5.4163181484
 C          3.4832305189       -5.9350495676        4.5702889012
 C          2.6547717916       -5.0058002550        3.9702047121
 C          2.5362388456       -1.4993826545        2.9910191561
 C          1.7276429665       -0.6120297104        2.3035916778
 C          1.9854750964        0.6147445958        1.5979581659
 C          3.1251558745        1.3643717215        1.3589072962
 C          3.0239764297        2.5330141021        0.6106018721
 C          4.2198357045        3.3246743035        0.2894982832
 C          4.3613446816        3.8977809586       -0.9730327521
 C          5.4828465767        4.6390081538       -1.2924118611
 C          6.4822378574        4.8267948332       -0.3522580804
 C          6.3519561395        4.2652233695        0.9073062926
 C          5.2334112903        3.5176080794        1.2257449417
 C          1.7688045713        2.9613591067        0.1574098620
 C          0.6227774755        2.2287069182        0.3817888226
 C          0.7452803666        1.0283085915        1.0654182810
 C          2.4860338344        5.0535774223       -4.0132848090
 C          3.2891641199        6.0000449754       -4.6208961716
 H          4.9268651227        6.3465412080       -5.9570687216
 H          5.2844404164        3.9466160740       -6.4073798116
 H          3.8573889940        2.2620966857       -5.3286102237
 H          0.0327641619        3.7795243204       -3.8364089498
 H         -1.3726270249        2.1911459883       -2.5860575743
 H          3.5109547754        1.3793902035       -3.1471442952
 H          4.0662122572       -0.9541171209       -1.8073105048
 H          3.6847147367       -3.6832561024        1.6398352406
 H          5.7046535657       -4.9572690121        2.1762608707
 H          7.4772997254       -5.2454628357        0.4727066202
 H          7.1916188875       -4.2514786528       -1.7668174061
 H          5.1563832267       -2.9891900186       -2.3092756868
 H          1.7734809465       -3.8702934797        0.3302510897
 H         -0.2950733969       -2.5895759439       -0.0439847349
 H         -2.7011682342       -0.0944309362       -2.4507657334
 H         -6.5923494621       -0.0264636501       -3.2930876853
 H         -8.8246849041       -0.0348807937       -4.4450569571
 H        -10.8826109545       -0.0681357835       -3.0250412586
 H        -10.8187910799       -0.1551096797        3.2375535345
 H         -8.7325816272       -0.1376097449        4.6161656160
 H         -6.5242571261       -0.0925138531        3.4199001830
 H         -2.6508672045        0.0464077365        2.4974806697
 H         -1.2804691617       -2.2178659174        2.6033994657
 H          0.1765118486       -3.7781416558        3.8300170939
 H          3.9943746507       -2.1844600912        5.2541148807
 H          5.4661570309       -3.8383767849        6.3200357076
 H          5.1448217269       -6.2463669430        5.8854299703
 H          3.3399258007       -6.9877624107        4.3737797578
 H          1.8779448941       -5.3370155926        3.2958904931
 H          3.5968954955       -1.3161329052        3.0737712076
 H          4.0837482687        1.0289291725        1.7245593986
 H          3.5947321408        3.7427446987       -1.7159543112
 H          5.5741503040        5.0680804667       -2.2800927338
 H          7.3583142055        5.4084064698       -0.5987284143
 H          7.1262572987        4.4136075999        1.6464839417
 H          5.1316655061        3.0982140847        2.2162293906
 H          1.6973652287        3.8992941951       -0.3719744204
 H         -0.3395655551        2.5794720613        0.0400870359
 H          1.7131282405        5.3679202265       -3.3265267767
 H          3.1303267223        7.0491448957       -4.4171054513
