32
 energy: -50.563568985978 gnorm: 0.000028562486 xtb: 6.7.1 (edcfbbe)
C           -5.33449002208960        0.62270633391242       -0.00599321107377
C           -4.59810339771053        1.80426310750976       -0.00203533633133
C           -3.21637074075568        1.78505276945351        0.00141681470990
C           -2.56779787509441        0.55791010349697        0.00089325114206
C           -3.32697176909316       -0.63506341693822       -0.00254999723618
C           -4.71176659643646       -0.61219743619711       -0.00618637345954
N           -2.46814970480079       -1.70723201264676       -0.00222776086971
C           -1.17220757587898       -1.25714470303386        0.00035317353323
C           -0.00003730239269       -1.99464956854104        0.00014229494834
C            1.17217196068768       -1.25720774144344        0.00103386049316
N            2.46809306521543       -1.70735660323454       -0.00072413747511
C            3.32696673395162       -0.63523056442627       -0.00125870122205
C            4.71176237289648       -0.61242710712461       -0.00446649717611
C            5.33454082317158        0.62244988533665       -0.00537979035547
C            4.59820847840971        1.80404377615347       -0.00290964203615
C            3.21647432572197        1.78489558294856        0.00042248519901
C            2.56784805101142        0.55778249086861        0.00110005087951
C            1.18378623714341        0.16578768000921        0.00261364591119
C            0.00003444127376        0.88555490395648        0.00382989729496
C           -1.18375590618331        0.16585015845379        0.00245151041465
H           -6.41351675089900        0.67177465678123       -0.00906963168087
H           -5.12019477244116        2.74973414619289       -0.00184642211456
H           -2.64999273906355        2.70416650575026        0.00433349364325
H           -5.28544046562112       -1.52762715453719       -0.00930897304828
H           -2.74601655967860       -2.67320771685895       -0.00456761071466
H           -0.00007078115641       -3.07447110933919       -0.00134621474163
H            2.74591095649822       -2.67334781117109       -0.00193388810435
H            5.28540556378379       -1.52787903310011       -0.00650036780159
H            6.41357072954656        0.67146621182771       -0.00824088173376
H            5.12034413761271        2.74948968538810       -0.00381317155100
H            2.65013186615957        2.70403433785264        0.00220683414448
H            0.00006617738091        1.96422171449356        0.00519537007610
