  66
  -98.4748028048000       0.332398775497340      !
 C         -3.4354171121       -4.0055662917       -0.2041258528
 C         -3.4730940770       -3.2036538262        0.9235918846
 C         -2.7210019404       -2.0448991963        0.9770974078
 C         -1.9171524480       -1.6772067965       -0.0959432915
 C         -1.1237925548       -0.4283231699       -0.0432528421
 C         -1.7943565494        0.7905253693        0.0431255135
 C         -3.2682117790        0.8045094126        0.1426603431
 C         -4.0557003121        0.2845776179       -0.8789109672
 C         -5.4335573997        0.2810925180       -0.7667416548
 C         -6.0418912712        0.7933567010        0.3667601830
 C         -5.2654837154        1.3169032264        1.3867184496
 C         -3.8873219386        1.3254817500        1.2750193767
 C         -1.0693868717        1.9902745302       -0.0141417572
 C         -1.7261021299        3.2551447114       -0.0820048319
 C         -1.0288729404        4.4097413919       -0.1750057862
 C          0.3944763823        4.4063836129       -0.2080149157
 C          1.1349769531        5.5840833406       -0.3231514575
 C          2.5163245030        5.5501463170       -0.3672921757
 C          3.1890434675        4.3451594131       -0.2920847898
 C          2.4861257500        3.1446290253       -0.1763442833
 C          3.1438928211        1.8945717811       -0.0348922216
 C          2.4664746961        0.7190898277        0.0780782723
 C          3.2605267770       -0.4796290258        0.4098467506
 C          4.3218203619       -0.8770754743       -0.3959135010
 C          5.1059390074       -1.9583886331       -0.0399711794
 C          4.8537262680       -2.6423601813        1.1365948486
 C          3.8170456603       -2.2352237440        1.9589462743
 C          3.0259476344       -1.1610132132        1.5999177630
 C          1.0297456518        0.7007481398       -0.0184733325
 C          0.2729310832       -0.4822183756       -0.0951438039
 C          0.8934362648       -1.8047928656       -0.3103197468
 C          0.6937083643       -2.8536985712        0.5807255992
 C          1.2318556586       -4.1001511370        0.3257023185
 C          1.9650275504       -4.3197724371       -0.8276816727
 C          2.1577958224       -3.2849598429       -1.7263049401
 C          1.6252190162       -2.0358836235       -1.4705541909
 C          0.3473285533        1.9479188700       -0.0504010765
 C          1.0714693653        3.1639838558       -0.1390484504
 C         -1.8850658502       -2.4876242653       -1.2254075230
 C         -2.6403994892       -3.6439469898       -1.2783748120
 H         -4.0246317750       -4.9099292310       -0.2461196127
 H         -4.0917398982       -3.4810021703        1.7647145970
 H         -2.7488801757       -1.4217959808        1.8597787552
 H         -3.5828855619       -0.1114879994       -1.7656163121
 H         -6.0351766867       -0.1241049799       -1.5671849461
 H         -7.1183336404        0.7859970059        0.4547588194
 H         -5.7350719829        1.7187688238        2.2729772299
 H         -3.2792008963        1.7271983884        2.0737585270
 H         -2.8059452692        3.2688357577       -0.0753352057
 H         -1.5403948502        5.3599327017       -0.2354721977
 H          0.6127369176        6.5284082143       -0.3812154933
 H          3.0733454741        6.4715718655       -0.4576276321
 H          4.2690517137        4.3213860489       -0.3188062573
 H          4.2231195424        1.8933488211        0.0362873026
 H          4.5175148092       -0.3445291391       -1.3158470392
 H          5.9187562733       -2.2671101203       -0.6812973676
 H          5.4669732791       -3.4865406571        1.4152855485
 H          3.6252200005       -2.7568010652        2.8853272503
 H          2.2227445645       -0.8368090874        2.2461748150
 H          0.1255866465       -2.6859517108        1.4839818179
 H          1.0757508406       -4.9051609926        1.0288206728
 H          2.3825803156       -5.2955737362       -1.0273994358
 H          2.7236904403       -3.4521372946       -2.6313092431
 H          1.7675859084       -1.2288820284       -2.1758236544
 H         -1.2697331840       -2.2037340432       -2.0670788236
 H         -2.6090460538       -4.2647309598       -2.1620514844
  66
  -98.4747150110000       0.302909000758193      !
 C         -3.4399289390       -3.9967072760       -0.2149605753
 C         -3.4959556500       -3.1875818862        0.9066483612
 C         -2.7425569755       -2.0301136907        0.9661889498
 C         -1.9196190177       -1.6702695530       -0.0948623479
 C         -1.1264264073       -0.4211319055       -0.0385361997
 C         -1.7982479644        0.7974543450        0.0302196019
 C         -3.2742101437        0.8081077391        0.0959314920
 C         -4.0330207843        0.2953668920       -0.9506025376
 C         -5.4131478411        0.2858555780       -0.8744565215
 C         -6.0524541797        0.7842286328        0.2481564270
 C         -5.3047059079        1.3005794792        1.2927750186
 C         -3.9241603747        1.3153734378        1.2170062371
 C         -1.0710793057        1.9961788884       -0.0078436343
 C         -1.7291218636        3.2609580960       -0.0660179926
 C         -1.0336862369        4.4179642433       -0.1330907056
 C          0.3895821543        4.4159321259       -0.1518778986
 C          1.1286707831        5.5969176578       -0.2370127708
 C          2.5104354398        5.5670799103       -0.2688944932
 C          3.1842706358        4.3618190490       -0.2137858956
 C          2.4820181062        3.1583691452       -0.1277280555
 C          3.1412856090        1.9065275201       -0.0210208241
 C          2.4684433565        0.7265243211        0.0699968053
 C          3.2881661650       -0.4742659735        0.3283137500
 C          4.3005636107       -0.8358445309       -0.5540202694
 C          5.1174605229       -1.9166230918       -0.2802403162
 C          4.9472727914       -2.6363969793        0.8895547498
 C          3.9621829648       -2.2638202957        1.7880746395
 C          3.1393495074       -1.1885968629        1.5123062461
 C          1.0303337202        0.7050870349       -0.0064159918
 C          0.2708921668       -0.4770548760       -0.0700100738
 C          0.8763680990       -1.8163491872       -0.2209293219
 C          0.6656424937       -2.8032000026        0.7363183677
 C          1.1802353700       -4.0726318356        0.5583613693
 C          1.9009930286       -4.3770654823       -0.5835351868
 C          2.1017651854       -3.4054671687       -1.5484456105
 C          1.5913869200       -2.1335602826       -1.3704323724
 C          0.3462483829        1.9532802045       -0.0321251899
 C          1.0674618411        3.1728801868       -0.0989655518
 C         -1.8701960334       -2.4874567607       -1.2186913461
 C         -2.6261856979       -3.6428440118       -1.2775687486
 H         -4.0296870286       -4.9003228749       -0.2615184479
 H         -4.1297364737       -3.4585979230        1.7385623343
 H         -2.7850063994       -1.4016247699        1.8443588001
 H         -3.5355486085       -0.0904760946       -1.8282542333
 H         -5.9921714807       -0.1142771037       -1.6938181825
 H         -7.1307017751        0.7713752432        0.3085819085
 H         -5.7986676372        1.6916567707        2.1704844168
 H         -3.3387160443        1.7115638304        2.0351713655
 H         -2.8090192093        3.2723318714       -0.0700438859
 H         -1.5458812718        5.3682778433       -0.1846083136
 H          0.6047878739        6.5411698810       -0.2791488742
 H          3.0662954936        6.4912482320       -0.3353510076
 H          4.2645275412        4.3394741323       -0.2341035905
 H          4.2215905611        1.9045309057        0.0323509700
 H          4.4317501619       -0.2743394665       -1.4682862758
 H          5.8913536661       -2.1965428885       -0.9803951511
 H          5.5853203686       -3.4808426405        1.1043065883
 H          3.8353973631       -2.8136274146        2.7092639402
 H          2.3782494274       -0.8907050381        2.2191299471
 H          0.1060365274       -2.5676774180        1.6298578731
 H          1.0160979145       -4.8282748879        1.3126658955
 H          2.3015029845       -5.3702687088       -0.7232102277
 H          2.6573411971       -3.6399519667       -2.4447555358
 H          1.7402057462       -1.3767199960       -2.1279478048
 H         -1.2405346027       -2.2096047371       -2.0516918246
 H         -2.5808680456       -4.2688023894       -2.1568435201
  66
  -98.4743507559000       0.206021300735312      !
 C         -3.4602871810       -3.9977749567        0.1344102507
 C         -2.7434427208       -3.5910594711        1.2469007725
 C         -1.9802930585       -2.4397217526        1.1984407868
 C         -1.9265781644       -1.6794015060        0.0352742924
 C         -1.1268413748       -0.4347272467       -0.0058003027
 C         -1.7807018652        0.7836541557       -0.1912421109
 C         -3.2319838769        0.7982027809       -0.4657449478
 C         -3.6965633085        1.2943546472       -1.6806488746
 C         -5.0466510288        1.2699101750       -1.9778100840
 C         -5.9497952379        0.7569050449       -1.0620447407
 C         -5.4968989589        0.2760604052        0.1551170156
 C         -4.1467830503        0.2945779495        0.4525866588
 C         -1.0630716981        1.9841021554       -0.0765788543
 C         -1.7178316276        3.2514431982       -0.0575489247
 C         -1.0263038208        4.4006304762        0.1175698823
 C          0.3891517588        4.3918263147        0.2761309357
 C          1.1216408875        5.5615473282        0.4867011282
 C          2.4946489724        5.5174827148        0.6433213341
 C          3.1694055278        4.3124416807        0.5820186219
 C          2.4751788726        3.1189181056        0.3771719576
 C          3.1383661134        1.8707426804        0.2333414887
 C          2.4618494876        0.7023660550        0.0580289967
 C          3.2382771484       -0.4954518652       -0.3094479307
 C          2.9474146001       -1.1624771235       -1.4962993382
 C          3.7146147911       -2.2364726105       -1.9032814290
 C          4.7833991953       -2.6601941708       -1.1317713809
 C          5.0879016814       -1.9950022491        0.0432565313
 C          4.3270849174       -0.9138982639        0.4474375300
 C          1.0223869741        0.6928585817        0.0946731569
 C          0.2604223828       -0.4873484340        0.1627708576
 C          0.8831919088       -1.7780530864        0.5128745781
 C          1.5850028123       -1.8770229472        1.7111266755
 C          2.1396754678       -3.0798064806        2.1033483035
 C          2.0005664660       -4.2012029174        1.3040180171
 C          1.2989735657       -4.1131847696        0.1138754357
 C          0.7383715968       -2.9126543349       -0.2779295498
 C          0.3450758881        1.9399792557        0.0756646151
 C          1.0669384916        3.1492280406        0.2347930832
 C         -2.6504398533       -2.0932694426       -1.0772154567
 C         -3.4108954856       -3.2467327563       -1.0274428627
 H         -4.0572670195       -4.8970923295        0.1733365907
 H         -2.7800402122       -4.1719176278        2.1570340579
 H         -1.4266471223       -2.1194603214        2.0694904960
 H         -2.9886568639        1.6879781090       -2.3969706912
 H         -5.3946953078        1.6503084915       -2.9274219567
 H         -7.0039902923        0.7338527801       -1.2960399669
 H         -6.1985336918       -0.1198821500        0.8746784384
 H         -3.7954736882       -0.0822453813        1.4019472980
 H         -2.7925717489        3.2708405743       -0.1641385248
 H         -1.5377921870        5.3524024645        0.1470363766
 H          0.6003858046        6.5071369904        0.5313675346
 H          3.0450750619        6.4323375304        0.8097225652
 H          4.2441819132        4.2838393187        0.6907477626
 H          4.2194428282        1.8695125304        0.2058284976
 H          2.1191406685       -0.8256056208       -2.1034281885
 H          3.4790147966       -2.7448590902       -2.8269532912
 H          5.3797853222       -3.5030158535       -1.4483441404
 H          5.9250474617       -2.3177978641        0.6451322304
 H          4.5653369111       -0.3970585814        1.3660766632
 H          1.6865371574       -1.0015961608        2.3376020476
 H          2.6813451457       -3.1425552176        3.0360413004
 H          2.4363126463       -5.1411641821        1.6089606417
 H          1.1865286657       -4.9859876556       -0.5124482329
 H          0.1981848513       -2.8493611899       -1.2109108592
 H         -2.6111222665       -1.5099253976       -1.9861077138
 H         -3.9700107726       -3.5584691965       -1.8977552684
  66
  -98.4740626458000       0.151881854178641      !
 C         -3.4377031014       -3.9946952909       -0.4730534478
 C         -3.4836485508       -3.2690314055        0.7049190018
 C         -2.7283458474       -2.1191413551        0.8435130220
 C         -1.9137382060       -1.6843322115       -0.1954409397
 C         -1.1212867779       -0.4400242698       -0.0779962380
 C         -1.7865303803        0.7780128070        0.0663102607
 C         -3.2472872379        0.7979118473        0.2816306833
 C         -4.1321135369        0.2818410037       -0.6586108265
 C         -5.4919493277        0.2761874973       -0.4078643347
 C         -5.9845762845        0.7825450401        0.7831084625
 C         -5.1110674168        1.3067832806        1.7209545139
 C         -3.7514968541        1.3177434238        1.4709293957
 C         -1.0648256341        1.9787824392       -0.0210502761
 C         -1.7187136987        3.2447153723       -0.0921598966
 C         -1.0200557064        4.3917927966       -0.2526617327
 C          0.4015088094        4.3829169408       -0.3410398701
 C          1.1424861894        5.5497335336       -0.5379230989
 C          2.5214964768        5.5045662571       -0.6255268409
 C          3.1937052941        4.3024426945       -0.5043382223
 C          2.4917168280        3.1120695605       -0.3080873226
 C          3.1475893266        1.8701640403       -0.0907056537
 C          2.4626406871        0.7062420400        0.0804805532
 C          3.2042315312       -0.4777694037        0.5489237764
 C          4.3481866054       -0.9295706904       -0.0990875189
 C          5.0614808351       -2.0012521269        0.4050918560
 C          4.6537089434       -2.6223383237        1.5728917335
 C          3.5299787012       -2.1627852566        2.2385860036
 C          2.8103590873       -1.0989997905        1.7312706144
 C          1.0283792209        0.6909446679       -0.0504213772
 C          0.2744636153       -0.4917188798       -0.1506453731
 C          0.9203278927       -1.7902991394       -0.4210350228
 C          0.7063364385       -2.9013421616        0.3877324448
 C          1.2933554350       -4.1135162043        0.0802532845
 C          2.0922728188       -4.2370465916       -1.0435028333
 C          2.3017834933       -3.1396396066       -1.8604703267
 C          1.7201423634       -1.9250036714       -1.5521662185
 C          0.3492336455        1.9359215269       -0.0976152554
 C          1.0777114104        3.1429644921       -0.2410436225
 C         -1.8706463701       -2.4205027865       -1.3749318823
 C         -2.6288834882       -3.5676124431       -1.5124994747
 H         -4.0315332338       -4.8903565991       -0.5817254641
 H         -4.1128094561       -3.5985565888        1.5189779384
 H         -2.7644937052       -1.5558651252        1.7651044470
 H         -3.7508661213       -0.1114174614       -1.5894837762
 H         -6.1704157896       -0.1287999783       -1.1443464897
 H         -7.0464635234        0.7700491978        0.9800762311
 H         -5.4894271673        1.7054897504        2.6512184996
 H         -3.0663996294        1.7187901027        2.2051440997
 H         -2.7974947513        3.2644829891       -0.0419735683
 H         -1.5305795631        5.3416640934       -0.3259269684
 H          0.6232277923        6.4933632057       -0.6259169059
 H          3.0788888193        6.4169861172       -0.7817206898
 H          4.2727232032        4.2746449381       -0.5574380114
 H          4.2249916702        1.8735798508        0.0028897490
 H          4.6653760106       -0.4501941138       -1.0141344791
 H          5.9408319901       -2.3533444823       -0.1145168866
 H          5.2123235529       -3.4586258839        1.9664831417
 H          3.2138952084       -2.6351030696        3.1573388166
 H          1.9380016886       -0.7341649778        2.2547472931
 H          0.0910846285       -2.8094139026        1.2704821600
 H          1.1261594833       -4.9670133411        0.7208693491
 H          2.5494090591       -5.1858705377       -1.2826447284
 H          2.9200088524       -3.2306211710       -2.7418174217
 H          1.8768515562       -1.0691005131       -2.1940161103
 H         -1.2455674102       -2.0829796958       -2.1893110049
 H         -2.5902979843       -4.1283645961       -2.4351226309
  66
  -98.4711257678000       6.789068830514447E-003 !
 C         -3.3379916189       -4.0119850403       -0.2145404921
 C         -2.8239019215       -3.6029990910        1.0035348265
 C         -2.1046938173       -2.4257147182        1.0936817915
 C         -1.8900088252       -1.6460141508       -0.0347391882
 C         -1.1086480753       -0.3876523095        0.0323394107
 C         -1.7842335318        0.8288433390        0.0167735922
 C         -3.2621535023        0.8063348558        0.0149568692
 C         -3.9792180878        1.1706388560       -1.1191563562
 C         -5.3603418783        1.0977727911       -1.1256936372
 C         -6.0397619301        0.6663458150        0.0007933117
 C         -5.3323849798        0.3100594623        1.1364573386
 C         -3.9517646911        0.3763812191        1.1430369552
 C         -1.0600934737        2.0275336284       -0.0273717885
 C         -1.7166727877        3.2936272626       -0.0654533248
 C         -1.0176494904        4.4484473371       -0.1378591396
 C          0.4061417715        4.4430417139       -0.1763097277
 C          1.1477373706        5.6216611216       -0.2716129332
 C          2.5294793854        5.5879663788       -0.3048979851
 C          3.2015704625        4.3820228367       -0.2404172138
 C          2.4980815900        3.1804536073       -0.1414686977
 C          3.1568731414        1.9269294791       -0.0275650337
 C          2.4779803024        0.7545578038        0.0842360500
 C          3.2757665200       -0.4648299782        0.3452673699
 C          4.0079608589       -1.0818371575       -0.6600569448
 C          4.7959654912       -2.1819621969       -0.3743956700
 C          4.8775072094       -2.6623917850        0.9208431604
 C          4.1729401147       -2.0339175763        1.9333267813
 C          3.3784855001       -0.9399147899        1.6479727068
 C          1.0413817787        0.7382301350        0.0355513901
 C          0.2856756263       -0.4449557449        0.0293735501
 C          0.8694229942       -1.7999445381       -0.1108282579
 C          1.0066737181       -2.6568344294        0.9730795193
 C          1.4547003884       -3.9508911897        0.7891418929
 C          1.7597930821       -4.4081911494       -0.4807550185
 C          1.6186709557       -3.5628118800       -1.5669497893
 C          1.1720748173       -2.2676814088       -1.3839239561
 C          0.3576269580        1.9842269112       -0.0285171611
 C          1.0831278403        3.1997745872       -0.1122533138
 C         -2.4178223902       -2.0569894283       -1.2521734156
 C         -3.1367383731       -3.2342301093       -1.3415915781
 H         -3.8963618454       -4.9338930697       -0.2849478319
 H         -2.9825168293       -4.2045648145        1.8868378011
 H         -1.7117366061       -2.1046508625        2.0473666793
 H         -3.4472664787        1.5017346307       -2.0000712593
 H         -5.9085699774        1.3754902863       -2.0142925113
 H         -7.1182174296        0.6076498241       -0.0062084900
 H         -5.8581172011       -0.0222988347        2.0196968754
 H         -3.3992273335        0.1037651458        2.0301513863
 H         -2.7963371640        3.3057189127       -0.0328981179
 H         -1.5265388405        5.4015278650       -0.1680820906
 H          0.6265043860        6.5670992128       -0.3206723202
 H          3.0873527506        6.5104282981       -0.3784784430
 H          4.2817088875        4.3583200448       -0.2620337398
 H          4.2380730201        1.9191538977        0.0056804664
 H          3.9477581698       -0.7028516756       -1.6702101119
 H          5.3518304549       -2.6639646156       -1.1653921328
 H          5.4938301976       -3.5211704425        1.1424215977
 H          4.2438290735       -2.3970523181        2.9483845054
 H          2.8302210160       -0.4426029469        2.4357088740
 H          0.7737435204       -2.3023648634        1.9661605220
 H          1.5620471568       -4.6070026943        1.6405173853
 H          2.1045091824       -5.4217271607       -0.6234165005
 H          1.8517262366       -3.9151452314       -2.5612796928
 H          1.0535815105       -1.6079936309       -2.2319889184
 H         -2.2580947604       -1.4491116939       -2.1312399750
 H         -3.5413306487       -3.5458740933       -2.2935906724
