  137
       -184.17756973
 C         12.5257488838       -4.8792035297        2.0190060457
 C         12.8806212182       -4.0651735143        0.7667877886
 C         14.2876457760       -3.4914929324        0.9557322558
 C         12.9048642672       -4.9851453325       -0.4620983214
 C         11.8312554578       -2.9824609631        0.5596764943
 C         10.4986654839       -3.3643431083        0.3527308418
 C          9.4812944393       -2.4557502700        0.1454416987
 C          9.8043400153       -1.1075744959        0.1362587113
 C         11.1322039461       -0.6948237465        0.3730544307
 C         12.1366684418       -1.6318774480        0.5781235470
 C         11.1213679167        0.7417100963        0.3535410769
 C         12.1176089193        1.6979855740        0.5018661079
 C         11.8000642467        3.0424758748        0.4058139469
 C         12.8373841179        4.1450753133        0.5628015232
 C         12.8907198998        4.9772276594       -0.7264657081
 C         14.2420451033        3.5975801676        0.8310944035
 C         12.4426051839        5.0413784437        1.7451394987
 C         10.4699750853        3.3985835719        0.1441467673
 C          9.4606311365        2.4703971186       -0.0089961278
 C          9.7861090035        1.1283891127        0.1131798541
 N          8.9968308486        0.0023250819       -0.0184515783
 C          7.6243852913       -0.0134731813       -0.2894983633
 C          6.7483536491        0.7720349161        0.4551438697
 C          5.3964295980        0.7557187729        0.1790224178
 C          4.8814207620       -0.0428434702       -0.8406558613
 C          3.4420866948       -0.0536991936       -1.1328948066
 C          2.9920575334       -0.0581017283       -2.4534268727
 C          1.6424335368       -0.0590251385       -2.7540649537
 C          0.7271001927       -0.0621938935       -1.7140162414
 C          1.1683670091       -0.0636925402       -0.3821433645
 C          2.5119985358       -0.0558672469       -0.0898189286
 C         -0.0062790380       -0.0748161551        0.5708258272
 C         -0.0088350085        1.1703158971        1.4625088400
 C         -0.0095005914       -1.3461473761        1.4254161638
 C         -1.1744457407       -0.0628035694       -0.3900806696
 C         -2.5199642881       -0.0540639328       -0.1070209706
 C         -3.4434500316       -0.0490690912       -1.1561994638
 C         -4.8842947997       -0.0355815523       -0.8720423200
 C         -5.4009482650        0.7530849617        0.1546741505
 C         -6.7533585802        0.7688072741        0.4276672023
 C         -7.6293992720       -0.0063461436       -0.3278972771
 N         -9.0015878547        0.0065719208       -0.0558104781
 C         -9.8085399605       -1.1047926289        0.0924961778
 C         -9.4881121520       -2.4534708189        0.0746880557
 C        -10.5040003280       -3.3637477407        0.2822731607
 C        -11.8323592211       -2.9832855045        0.5167633351
 C        -12.8803814696       -4.0675153341        0.7228949779
 C        -12.9347729478       -4.9590098431       -0.5258855552
 C        -12.5007675161       -4.9111987368        1.9480338404
 C        -14.2809635158       -3.4946923536        0.9568120851
 C        -12.1350950966       -1.6326512032        0.5606260725
 C        -11.1323032915       -0.6940508564        0.3548700229
 C        -11.1196368628        0.7425628985        0.3580929496
 C        -12.1119533072        1.6975054999        0.5376467875
 C        -11.7937416515        3.0430107131        0.4597132036
 C        -12.8268689290        4.1440254155        0.6516536739
 C        -14.2235271812        3.5939881091        0.9540876999
 C        -12.9139901278        4.9837533576       -0.6306056432
 C        -12.4021088879        5.0339890570        1.8283520598
 C        -10.4676997837        3.4016287660        0.1816326771
 C         -9.4621184200        2.4747546759       -0.0016437118
 C         -9.7873873156        1.1313353826        0.1049958823
 C         -7.1234748031       -0.7954826723       -1.3578102226
 C         -5.7692043714       -0.8089542727       -1.6214318936
 C         -2.9842543462       -0.0529443109       -2.4735963564
 C         -1.6325692118       -0.0562742200       -2.7650204531
 C         -0.7241618634       -0.0611982796       -1.7189456632
 C          5.7660098221       -0.8282385484       -1.5777129603
 C          7.1193950352       -0.8151743215       -1.3101572988
 H         13.2774992694       -5.6462224365        2.1943804985
 H         11.5604817320       -5.3667309438        1.9146511944
 H         12.4858363141       -4.2287440714        2.8903461635
 H         14.5937272998       -2.9139090389        0.0865190406
 H         14.9972020980       -4.3065278782        1.0847794022
 H         14.3378515932       -2.8605306364        1.8400769987
 H         13.1266576856       -4.4085082917       -1.3577041431
 H         13.6707462314       -5.7490685335       -0.3445003893
 H         11.9496338049       -5.4821822547       -0.6056270619
 H         10.2422350120       -4.4129102979        0.3565236765
 H          8.4644230693       -2.7915867064        0.0065923210
 H         13.1397037321       -1.2809559059        0.7550285077
 H         13.1262679267        1.3666275531        0.6843726144
 H         13.1427561060        4.3413673468       -1.5729445505
 H         13.6476586692        5.7542727022       -0.6404977900
 H         11.9364703545        5.4544337870       -0.9319505441
 H         14.9397699295        4.4259998607        0.9377433470
 H         14.2670620059        3.0173099118        1.7505238335
 H         14.5831418177        2.9757814047        0.0066525371
 H         11.4736864686        5.5060708218        1.5845859903
 H         13.1801084189        5.8298062675        1.8816377206
 H         12.3912244379        4.4540787405        2.6598407956
 H         10.2102814817        4.4422742833        0.0517924138
 H          8.4523269429        2.7871671594       -0.2303087888
 H          7.1336865982        1.3838221647        1.2572209037
 H          4.7292547574        1.3827803918        0.7522634202
 H          3.7163430380       -0.0364729656       -3.2547891650
 H          1.3108238762       -0.0538402363       -3.7818563524
 H          2.8570185492       -0.0729173108        0.9339755473
 H          0.8711642372        1.1792396680        2.1014556093
 H         -0.0041813885        2.0704217725        0.8511217239
 H         -0.8953243112        1.1822326960        2.0923805976
 H         -0.0099829103       -2.2275606444        0.7874928249
 H         -0.8941135607       -1.3745695494        2.0574124669
 H          0.8734254650       -1.3772822465        2.0596533240
 H         -2.8714728929       -0.0727403956        0.9145039516
 H         -4.7345249603        1.3724344494        0.7370509029
 H         -7.1391388200        1.3716493276        1.2362701518
 H         -8.4740842167       -2.7889577722       -0.0841305017
 H        -10.2493207091       -4.4126163150        0.2643944669
 H        -11.9815528871       -5.4476957766       -0.7068663360
 H        -13.6941204730       -5.7290718398       -0.4051551629
 H        -13.1834487310       -4.3628562649       -1.4015440284
 H        -12.4416757304       -4.2814169456        2.8334079325
 H        -13.2502327382       -5.6810579289        2.1207694009
 H        -11.5388820848       -5.3977317143        1.8124978490
 H        -14.6074752405       -2.9008988254        0.1061423442
 H        -14.9889382353       -4.3107173961        1.0886335706
 H        -14.3077000251       -2.8797877351        1.8534450720
 H        -13.1351587712       -1.2832159769        0.7562643854
 H        -13.1181497317        1.3644295138        0.7303288232
 H        -14.9172612358        4.4213316461        1.0913078254
 H        -14.5895210113        2.9824734381        0.1325167017
 H        -14.2216671391        3.0024744541        1.8667710010
 H        -11.9633389815        5.4563941667       -0.8611698075
 H        -13.6637121950        5.7644135926       -0.5180957452
 H        -13.1940339977        4.3542680595       -1.4728082149
 H        -13.1410102965        5.8154693747        1.9940936690
 H        -11.4426348581        5.5081274009        1.6416454910
 H        -12.3177017949        4.4401931491        2.7362690591
 H        -10.2082031165        4.4463119003        0.1003700044
 H         -8.4569400908        2.7937810899       -0.2336619728
 H         -7.8008040868       -1.3861050040       -1.9564996868
 H         -5.3882267255       -1.4385114736       -2.4121083924
 H         -3.7025579262       -0.0291393169       -3.2802347536
 H         -1.2940317523       -0.0514895758       -3.7905665077
 H          5.3851344017       -1.4657237062       -2.3620738370
 H          7.7970854790       -1.4155795782       -1.8986276455
