  74
       -123.03396048
 N         -3.3518529606       -5.4579103681        0.2499794645
 C         -2.4007045926       -4.8233539129        0.1395978908
 C         -1.1880557861       -4.1140935047        0.0403590590
 C          0.0113933142       -4.8337909945        0.0581021042
 C          1.2117165432       -4.1574726422        0.0513230168
 C          1.1931224483       -2.7566837379        0.0546404714
 C          2.4105179890       -1.9438086643        0.0894754716
 C          3.6096043304       -2.4206586280        0.6189870150
 C          4.7326615716       -1.6198090132        0.6462767014
 C          4.6863114518       -0.3240740703        0.1361070855
 N          5.8339681350        0.4906000608        0.1594388382
 C          5.8366672384        1.6965736655        0.8688106861
 C          4.7508258193        2.1163120975        1.6270353673
 C          4.7882517077        3.3177052066        2.3184589549
 C          5.9146456840        4.1137816130        2.2747552794
 C          7.0206298298        3.6918327073        1.5523630346
 C          6.9891301990        2.4935077977        0.8634251652
 O          8.1353180808        2.1279890835        0.2035850038
 C          8.1217820409        0.9376426684       -0.4782929173
 C          9.2810030840        0.5865589173       -1.1449358420
 C          9.3353879285       -0.5834323818       -1.8876385076
 C          8.2157260169       -1.3854640227       -1.9740323038
 C          7.0515812102       -1.0390069302       -1.3051135666
 C          6.9916700521        0.1105362131       -0.5269953151
 C          3.4898115763        0.1598106560       -0.3911458926
 C          2.3674521630       -0.6387076497       -0.4060144688
 N          0.0501274275       -2.0806002344        0.0083514938
 C         -1.1153765478       -2.7054866166       -0.0163465082
 C         -2.2950080067       -1.8387235463       -0.0808992175
 C         -3.4637845567       -2.2120190665       -0.7414987427
 C         -4.5438988277       -1.3539374829       -0.7900851631
 C         -4.4797350336       -0.1057961087       -0.1756676531
 N         -5.5805019673        0.7704063394       -0.2193126733
 C         -5.4565213099        2.0295122516       -0.8139586391
 C         -4.3087904216        2.4189409780       -1.4932827664
 C         -4.2183356651        3.6747522274       -2.0744257096
 C         -5.2766722712        4.5571598906       -1.9981189509
 C         -6.4431627185        4.1702076119       -1.3553621393
 C         -6.5392014809        2.9181620328       -0.7764374321
 O         -7.7362947311        2.5951653723       -0.1890826718
 C         -7.8524278160        1.3452837784        0.3669111006
 C         -9.0669608133        1.0323771782        0.9485647298
 C         -9.2535892494       -0.1971129093        1.5625867851
 C         -8.2110340827       -1.1002925241        1.6042389751
 C         -6.9912957746       -0.7921900500        1.0207727565
 C         -6.7977833955        0.4223417582        0.3747286192
 C         -3.3076018741        0.2768247901        0.4751537214
 C         -2.2277573623       -0.5769286122        0.5132869585
 H         -0.0183720246       -5.9142334684        0.0813540205
 H          2.1427376396       -4.7004725194        0.0360088433
 H          3.6615900070       -3.4111569434        1.0453844659
 H          5.6535075869       -1.9879286206        1.0746114584
 H          3.8697408554        1.4965955679        1.6865081363
 H          3.9268584440        3.6207161770        2.8934971517
 H          5.9466441029        5.0521055204        2.8053963973
 H          7.9250113041        4.2776602423        1.5144895973
 H         10.1294307423        1.2482061727       -1.0745020711
 H         10.2448697688       -0.8507717187       -2.4017097336
 H          8.2339053819       -2.2871904477       -2.5666277695
 H          6.1782469262       -1.6655724505       -1.3988089618
 H          3.4541584319        1.1616921994       -0.7931051396
 H          1.4380254365       -0.2734378818       -0.8147838892
 H         -3.5232683295       -3.1631835680       -1.2475496614
 H         -5.4412312003       -1.6417490403       -1.3170060486
 H         -3.4802405317        1.7328275151       -1.5759652766
 H         -3.3123906529        3.9514183925       -2.5910008397
 H         -5.2099225426        5.5368013964       -2.4441696560
 H         -7.2968281121        4.8263193011       -1.2960729960
 H         -9.8527005775        1.7700668048        0.9159499471
 H        -10.2052266702       -0.4334577947        2.0115985361
 H         -8.3329101526       -2.0539566207        2.0940470626
 H         -6.1813295817       -1.5019502121        1.0786450027
 H         -3.2574512411        1.2447670742        0.9518079986
 H         -1.3175609548       -0.2898948539        1.0166462927
