  74
       -122.96371151
 N         -3.4138113225       -5.3369315935        1.3443549347
 C         -2.4580405329       -4.6887904187        1.2302022020
 C         -1.2668958026       -3.9931162351        1.1220074663
 C         -0.0448376427       -4.7011462308        1.2786723839
 C          1.1524308069       -4.0914373848        1.0795605579
 C          1.1791350116       -2.7061599117        0.7096700872
 C          2.3762473931       -1.9521526771        0.5012350683
 C          2.2913774836       -0.5502313195        0.3319432862
 C          3.4056324304        0.2159960034        0.1238894398
 C          4.6686844475       -0.3849364980        0.0610957024
 N          5.8247827633        0.4000259183       -0.1647819729
 C          6.5474923254        0.2646044799       -1.3404813128
 C          6.1505907969       -0.6009341872       -2.3583716020
 C          6.8970944947       -0.7133795984       -3.5169107959
 C          8.0472500505        0.0388520140       -3.6882424631
 C          8.4436681138        0.9234435079       -2.6991206721
 C          7.7009130568        1.0437736420       -1.5366866053
 O          8.1292229041        1.9535028276       -0.6109852833
 C          7.3985758124        2.0875838309        0.5360918944
 C          7.8420721602        3.0122947347        1.4661358820
 C          7.1608584731        3.1772105215        2.6605125414
 C          6.0436846859        2.4033167778        2.9272488555
 C          5.5926425703        1.4790143208        2.0030908176
 C          6.2499550381        1.3162614944        0.7850611612
 C          4.7775191416       -1.7688988232        0.2178517373
 C          3.6604569747       -2.5339868334        0.4411179903
 N          0.0187436584       -2.0590023408        0.5749569973
 C         -1.1559684479       -2.6027765815        0.7661902085
 C         -2.3026025653       -1.7306458270        0.5567030707
 C         -3.5474423637       -1.9552346891        1.1551510313
 C         -4.6033223342       -1.1004118523        0.9259145916
 C         -4.4450432576        0.0031993217        0.0917421504
 N         -5.5373166292        0.8696429932       -0.1605073948
 C         -6.6493506915        0.4137627385       -0.8555845844
 C         -6.7325703007       -0.8838435410       -1.3553346472
 C         -7.8580590429       -1.3023657293       -2.0422178464
 C         -8.9169423608       -0.4353017247       -2.2520307009
 C         -8.8419193227        0.8660606140       -1.7841583379
 C         -7.7185324432        1.2933945536       -1.0968700672
 O         -7.6960470413        2.5970426110       -0.6840871365
 C         -6.5935629179        3.0314353318       -0.0025968041
 C         -6.5878178177        4.3503207705        0.4186664888
 C         -5.5121890137        4.8461302772        1.1364330918
 C         -4.4498880986        4.0134764865        1.4439624302
 C         -4.4466448417        2.6950741110        1.0248838562
 C         -5.5075243494        2.1851931837        0.2797566402
 C         -3.2051053230        0.2508314406       -0.4975233958
 C         -2.1530750537       -0.6020939125       -0.2631733122
 H         -0.0950312162       -5.7434569813        1.5644450834
 H          2.0739615569       -4.6285210064        1.2312884895
 H          1.3122832222       -0.0996275209        0.3731063513
 H          3.3243446525        1.2854102961       -0.0088884801
 H          5.2482461652       -1.1783829169       -2.2355367413
 H          6.5707639251       -1.3899598523       -4.2911437655
 H          8.6291237608       -0.0503401901       -4.5915145869
 H          9.3239449906        1.5359281803       -2.8092035218
 H          8.7259464442        3.5851996362        1.2362936522
 H          7.5116890484        3.8977110749        3.3816332010
 H          5.5177183581        2.5138005925        3.8625475399
 H          4.7296761909        0.8700712337        2.2205445346
 H          5.7551083425       -2.2276699630        0.1739403198
 H          3.7769051225       -3.5989756356        0.5639683019
 H         -3.6835405157       -2.7963200433        1.8135288910
 H         -5.5589065924       -1.2783580057        1.3969302739
 H         -5.9076656868       -1.5619585722       -1.2066278103
 H         -7.8983614547       -2.3121433787       -2.4200656549
 H         -9.7926500856       -0.7617290936       -2.7895023289
 H         -9.6401814800        1.5715996796       -1.9474628622
 H         -7.4379016879        4.9676343930        0.1767713325
 H         -5.5115165830        5.8752677705        1.4579162247
 H         -3.6141668704        4.3869490100        2.0150561687
 H         -3.6223510267        2.0482662189        1.2797941289
 H         -3.0860027669        1.1070329604       -1.1459129055
 H         -1.1932372985       -0.4262882742       -0.7229288036
