108
 energy: -167.669616247539 gnorm: 0.000032890068 xtb: 6.7.1 (edcfbbe)
C           -4.14664959917883       -4.27570948452973       -0.60411030568828
C           -2.68906062233058       -4.03909376855847       -0.35504515311561
C           -2.18543167232066       -2.75024608057330       -0.29154472944087
C           -0.82533119895642       -2.50454326391062       -0.11761614957829
C           -0.32930921379286       -1.13086168463915       -0.05696341168710
N            0.98668134739398       -0.94468056664798        0.01120063225582
C            1.39381756491432        0.32134856165960        0.06750026760465
C            2.83180457400851        0.57739145233372        0.12521939539726
C            3.31382789026982        1.88347311964770        0.20124657951209
C            4.67236826502160        2.10801417863484        0.25680160809664
C            5.56764492858717        1.04062904960927        0.23488704824856
N            6.94621225602560        1.30835631544065        0.29584670099602
C            7.80639041123683        0.92348621140561        1.30251953985263
C            7.52971195589749        0.25839218617139        2.48853607853830
C            8.58257241219375        0.01342439114612        3.34976007265300
C            9.87883390854108        0.42723797950048        3.04843366939917
C           10.15359451906877        1.11638925956873        1.88340836032166
C            9.11199301244202        1.37621627088689        1.00171227726140
C            9.02088585435995        2.08000535574863       -0.24797684793934
C            9.94543827654686        2.73619652867199       -1.05095002355964
C            9.50672903369415        3.32301473405384       -2.22168970593969
C            8.16760671185870        3.25483333342181       -2.60245695604992
C            7.22926641039123        2.60443499647151       -1.82363667488614
C            7.66307739661475        2.02614451599951       -0.63952835655911
C            5.10213490125612       -0.27699064980283        0.12777801321687
C            6.05073636537709       -1.43115399001320        0.02428311798618
C            3.73321191671120       -0.48389045973967        0.08364549226636
N            0.57252291760775        1.36859382912143        0.07125568586535
C           -0.72699081829744        1.09012567579223       -0.00039199325861
C           -1.66924781533035        2.20760662129390       -0.00042361921268
C           -1.20842858313778        3.51982062757928        0.09902993802595
C           -2.11065060904132        4.56136398413892        0.11034748376015
C           -3.47892188215759        4.31419693750028        0.01924708755751
N           -4.36913836466944        5.40163888197523        0.04445640388032
C           -4.40966215827611        6.42500014228161       -0.88028074115087
C           -3.65019193884433        6.60267803282910       -2.02762448172498
C           -3.91181026556754        7.71453388332120       -2.80566036929817
C           -4.90861197070137        8.62537062838856       -2.45978636219751
C           -5.67692492696741        8.44448982657924       -1.32644108501604
C           -5.43153699711408        7.33599044006334       -0.52575827548159
C           -6.01540089419432        6.83951294147402        0.68993487052473
C           -7.02265681108257        7.29983169793205        1.52862135057873
C           -7.31493093918922        6.57891120262918        2.66990615246498
C           -6.60551135752945        5.42307923123999        2.99087446886512
C           -5.59927706147695        4.94484431767196        2.17303325887495
C           -5.32349492200157        5.64816003538391        1.00907652711563
C           -3.95797187107128        3.00404235413499       -0.11597781317257
C           -5.41804738866916        2.72310808127205       -0.29584906565259
C           -3.03720980371190        1.96912872716425       -0.11237906881841
N           -1.22154426645262       -0.14348011414634       -0.07204710382750
C            0.05748355599723       -3.57881023700258       -0.01458695931300
C           -0.42701303104411       -4.86805898069352       -0.06177016545551
C           -1.79104142559737       -5.10625555741975       -0.21668922497026
N           -2.24878118990321       -6.43454022000431       -0.25596672704136
C           -3.09998065423295       -7.02856237072063        0.65165942793274
C           -3.64724110988663       -6.50636584869152        1.81500314535187
C           -4.46321118813059       -7.32938941350292        2.56795719223748
C           -4.72170572750370       -8.64403655510277        2.18421612493302
C           -4.15261082927737       -9.17821879589816        1.04470377009263
C           -3.32887483452999       -8.37100908224396        0.27029776084927
C           -2.56210742414756       -8.59074680562478       -0.92522564596647
C           -2.38318275406618       -9.68282117126732       -1.76522658297451
C           -1.55572282639150       -9.54543695393336       -2.86247496795503
C           -0.91639070334718       -8.33700971892086       -3.13430953363625
C           -1.08027547635554       -7.23530577025412       -2.31623636490381
C           -1.90007878264393       -7.37297011317518       -1.20552751111397
H           -4.28950648915669       -5.13130113832458       -1.26172539140683
H           -4.67217416782347       -4.48472374057072        0.32708192900389
H           -4.59685487675715       -3.39791229843739       -1.06002837749890
H           -2.84899990418905       -1.90550443069404       -0.39386762038114
H            2.61263563552371        2.70211568106726        0.22268560514551
H            5.05917661577173        3.11417231529070        0.32586113022410
H            6.52248749471978       -0.04035824135461        2.73855577377975
H            8.39615488281490       -0.50456058594460        4.27941397636975
H           10.67573268781947        0.21479938337522        3.74600643809239
H           11.15506235522215        1.45450790469596        1.66272538624774
H           10.98498190952767        2.78337254036842       -0.76277403473105
H           10.20968586333509        3.84059474625756       -2.85789931687725
H            7.85709881704114        3.71887287680676       -3.52737103373679
H            6.19377633853074        2.54666419721906       -2.12530098378607
H            5.55644866259550       -2.28361518141823       -0.43404987633738
H            6.92055579800188       -1.16096606220219       -0.57178224308057
H            6.40673076092637       -1.73157124710156        1.00925049659281
H            3.34052807823047       -1.48547658920536       -0.00123469033293
H           -0.14833477749422        3.70057148343978        0.17548271729323
H           -1.76831955842078        5.58199334719933        0.19925678233948
H           -2.88163739544424        5.89541570528413       -2.30239972195531
H           -3.33269618780119        7.88049853656143       -3.70247449755356
H           -5.08219539086282        9.48256481698628       -3.09375310612868
H           -6.45440517305382        9.14692856754019       -1.06552295892799
H           -7.55909603319581        8.20690634077590        1.29334320277145
H           -8.09557610804058        6.91971882205097        3.33421721265593
H           -6.84340841990864        4.89308601130844        3.90186368244953
H           -5.03427362996614        4.06420696427218        2.44003437661147
H           -5.55775851748597        1.75968255722293       -0.77888311252465
H           -5.93132097427961        2.70054660635997        0.66490135767305
H           -5.88662450739673        3.49654930698153       -0.90155965818192
H           -3.37185609287279        0.94809952176385       -0.21203478042829
H            1.11018376202482       -3.38378923283483        0.11217772689884
H            0.24398323074564       -5.70961478197250        0.02913647814820
H           -3.42780610476255       -5.49698868481117        2.13039255081546
H           -4.90527221673203       -6.94786429497383        3.47696784588661
H           -5.36689657542364       -9.25527475663033        2.79817373100902
H           -4.33674731319503      -10.20389598109461        0.76178873702929
H           -2.88353982747776      -10.61786839566003       -1.56201130773793
H           -1.40205276073757      -10.38350412047386       -3.52641565298539
H           -0.28065250915979       -8.25971948483624       -4.00437743208456
H           -0.58960485811946       -6.29818586740952       -2.53410686626769
