108
 energy: -167.591097765608 gnorm: 0.000054757396 xtb: 6.7.1 (edcfbbe)
C           -3.78114281485399       -4.75005882233435       -0.37700498304374
C           -2.34067221262417       -4.35924066166702       -0.23671944333439
C           -1.96621635041640       -3.03068416661804       -0.20672164613432
C           -0.62279489402628       -2.64153136938509       -0.12491369838198
C           -0.26761910380363       -1.24230279818691       -0.08674909887464
N            1.02557695827640       -0.90806555074349       -0.02284104779213
C            1.32517843838945        0.39532011984045        0.03022928738480
C            2.71204940443404        0.79140607740230        0.07502590753950
C            3.06680191895363        2.14689137365497        0.11856487102147
C            4.39130276054011        2.51100397657133        0.15973647051415
C            5.39384065984489        1.54020614474871        0.15910713981460
N            6.74132488882649        1.95130265855180        0.20647200228531
C            7.61401428340278        1.74679910103720        1.24953258006412
C            7.38738263688214        1.13729746272960        2.47676918795666
C            8.44411615895337        1.06897153423140        3.36513709267258
C            9.69281174421264        1.60098112445944        3.04918987237849
C            9.91648791051709        2.23133199340046        1.83781884726026
C            8.87187914571902        2.31216218864739        0.92856889716508
C            8.73096357622608        2.89493642485534       -0.37968575348101
C            9.59107856660090        3.57810125578320       -1.22701955829634
C            9.11178733030733        4.00570723255730       -2.45279059883147
C            7.79651865795128        3.75588368493720       -2.84007199285843
C            6.92013441682003        3.07658434351177       -2.01473612824249
C            7.39410843505515        2.65444866049118       -0.77952900432653
C            5.06504652304776        0.17758902309206        0.08966524709105
C            6.13621145883344       -0.86903208179268        0.02045441110081
C            3.72965025627397       -0.17161186659945        0.05619262108274
N            0.38389794537808        1.34838274980690        0.04587758201373
C           -0.89176886562914        0.95731287178855       -0.03679508935157
C           -1.92651837043655        1.96589396323211       -0.03631872761609
C           -1.60048175815715        3.32400824937287        0.07628043561945
C           -2.59596504858970        4.27159769271835        0.08988949308734
C           -3.93586884230340        3.89462437904561       -0.01181012807550
N           -4.92874049032431        4.89406340105864        0.01336567781634
C           -5.09083530801330        5.88002250920496       -0.93309251271985
C           -4.37406291520866        6.10010367186407       -2.10199093935935
C           -4.75735679956608        7.16203312967382       -2.89956222033426
C           -5.82899743927895        7.98187422838545       -2.55073858992383
C           -6.55241079284900        7.76015604826256       -1.39214617993224
C           -6.18596460894174        6.70204819873959       -0.57322419218856
C           -6.69005060651879        6.18184731886112        0.67007311409076
C           -7.71780746306550        6.55816015388141        1.52246574455497
C           -7.91363164058673        5.83263771087091        2.68427463327828
C           -7.09094701856238        4.75547383672116        3.00803726499613
C           -6.06038344386566        4.36110961254094        2.17547221014547
C           -5.87636380567370        5.06974578276006        0.99521246819377
C           -4.28551778392466        2.54336280277662       -0.15763709775410
C           -5.71531783572255        2.13176548849090       -0.34182778301061
C           -3.27374097645591        1.60327813076710       -0.15775965541634
N           -1.24830631169005       -0.32989938154387       -0.11695326191908
C            0.36580348242226       -3.63404159490650       -0.08487654128654
C            0.00944142997136       -4.96152523413548       -0.10407449766534
C           -1.33376960873163       -5.33443195691955       -0.16534912259383
N           -1.66384758590443       -6.70466700883705       -0.17332441225659
C           -2.32959835768409       -7.38053101448644        0.82242344824446
C           -2.78216939777873       -6.91228560252195        2.04925267416543
C           -3.41948038860809       -7.81073677835676        2.88426226611026
C           -3.59520771401831       -9.14344171254628        2.51673353568590
C           -3.12300006432534       -9.62054732962478        1.30671756509989
C           -2.47934343364926       -8.73857320408754        0.45092512979342
C           -1.85381449086897       -8.87604877256751       -0.83780619383599
C           -1.67549286994643       -9.93754850196204       -1.71301209440133
C           -1.01031866392064       -9.70870458068765       -2.90472019650923
C           -0.53078076150058       -8.44154964589306       -3.23141180470191
C           -0.69755929718612       -7.36719183880333       -2.37781266630033
C           -1.35575118743399       -7.59453803232374       -1.17635869303137
H           -3.89314259372626       -5.54125577775894       -1.11715447818615
H           -4.17821204674345       -5.12211849204038        0.56695835173493
H           -4.37453974589742       -3.89321056465294       -0.68455384492639
H           -2.71473202023018       -2.25451689067394       -0.25885786242789
H            2.28395205319463        2.88897981774607        0.12368261904391
H            4.67347494926882        3.55335098049533        0.20201462218358
H            6.41432250130453        0.74352457625554        2.72976220922757
H            8.29803807600732        0.59813930505500        4.32621027588916
H           10.49472672377355        1.52631477367452        3.76869132491673
H           10.88132079527849        2.65595903860036        1.60514147914492
H           10.61267803609139        3.76940077920242       -0.93524338945878
H            9.76636628315008        4.54008973972300       -3.12533568358014
H            7.45553008932923        4.09855559085993       -3.80591825211059
H            5.90229851221458        2.87770835331818       -2.31542537235371
H            5.72185420212788       -1.80725116668877       -0.33892729476991
H            6.93682237451968       -0.55649090972303       -0.64835753202614
H            6.57440767318320       -1.04191603633832        1.00311162153120
H            3.44157450996261       -1.21058850928959        0.00010727184381
H           -0.56223144593133        3.60418207866921        0.16096082903067
H           -2.35453395497720        5.32016278290831        0.18991962259952
H           -3.54757872056615        5.46108096218843       -2.37467100505732
H           -4.21629531317635        7.35931494969086       -3.81328413994874
H           -6.09829686982997        8.80157833381313       -3.20033947091305
H           -7.38513761917570        8.39494506733676       -1.12956135809101
H           -8.34667001495846        7.40274168787248        1.28460540858676
H           -8.70991564792331        6.10927174722932        3.35941327447708
H           -7.25896975110302        4.22093752816623        3.93146101740313
H           -5.40990035763742        3.54036148761876        2.43829276366529
H           -5.76605854642522        1.13393578051192       -0.76952728330251
H           -6.24352294737690        2.12233919414406        0.61117316949043
H           -6.23401347780124        2.82612265424567       -1.00099132355703
H           -3.50731128840391        0.55506141996077       -0.26800279163641
H            1.40091312450873       -3.33548908914812       -0.03079534895977
H            0.76430073036301       -5.73365352889911       -0.06160063880350
H           -2.62798943321644       -5.88440750388289        2.34234137888496
H           -3.78471104880757       -7.47431960844818        3.84347545312494
H           -4.10041784963416       -9.81475421440755        3.19527563311938
H           -3.24717860590800      -10.65782997632909        1.03473271339817
H           -2.04997888198981      -10.92005480343176       -1.46845912600173
H           -0.86081554784874      -10.52320617093967       -3.59796353248099
H           -0.02062441332402       -8.29579852871660       -4.17216002499777
H           -0.33183528060521       -6.38355619905459       -2.63183297909266
