58
 energy: -88.958913065569 gnorm: 0.000035556213 xtb: 6.7.1 (edcfbbe)
C           -6.70890975106662       -2.43589461765050       -0.33014247238262
C           -6.27588280716735       -1.71483968085302        0.77050069420269
C           -4.98757340620271       -1.21769205909198        0.81456751973438
C           -4.10910287639137       -1.43517399129153       -0.24495209998102
C           -2.73165783299109       -0.92181923702852       -0.19899521502779
C           -1.68095519213125       -1.79042640499866       -0.49059464038919
C           -0.35411594645028       -1.39054745186125       -0.43215841568977
N            0.67014067315979       -2.19772527275985       -0.71985335632201
C            1.92237678655588       -1.78206283008627       -0.61853990785633
C            2.21632998468824       -0.50078483179451       -0.15810975432094
N            3.52246590109070       -0.05376639520629       -0.06028609549111
C            4.53698796108507       -0.94253664503747        0.31357663124019
C            4.30555085699608       -1.90391534366148        1.29788830030647
C            5.30702015297360       -2.78420347667208        1.65672815472356
C            6.54921608328099       -2.72083637902657        1.04496572327544
C            6.78344856812639       -1.76804502461660        0.06657835049068
C            5.78757312475199       -0.88512494972203       -0.30286828741021
C            3.81169609948325        1.27962991934232       -0.37391216834134
C            3.06148627849649        1.96515179792675       -1.32793073269333
C            3.33186805198529        3.29266171433402       -1.59997009484184
C            4.35412590413013        3.95140982473455       -0.93813093921879
C            5.10385715702528        3.27215946101640        0.00947576233201
C            4.83711277491152        1.94851345690049        0.29583206136578
N            1.21625975797438        0.33131628247899        0.15434032556038
C           -0.05563712739741       -0.03733227069973       -0.00653552289343
C           -1.11886603436728        0.81261373203840        0.26643029419464
C           -2.44676231701319        0.40157342392610        0.16396914348055
C           -3.51181380667666        1.38755222884026        0.40262868744211
C           -3.47159318258954        2.20826915330844        1.52734445432153
C           -4.46759840273482        3.13968937681226        1.75449527234741
C           -5.51348535982750        3.27334644346167        0.85699946427053
C           -5.55410600294692        2.47282008717833       -0.27281731995021
C           -4.56264291824880        1.53787088825457       -0.50003101199858
C           -4.54936718913216       -2.17443655757529       -1.34025397439479
C           -5.84069401493105       -2.66590059451225       -1.38407755644205
H           -7.71799743384193       -2.81958115709997       -0.36499572789914
H           -6.94597663604758       -1.54016000901777        1.59976546218101
H           -4.65107485729707       -0.66585692598687        1.67988436271376
H           -1.88778586217574       -2.81707430431035       -0.75111951410993
H            2.70859486036155       -2.44882441470792       -0.93384924853392
H            3.34078861079844       -1.94638321704587        1.78117426916602
H            5.11859449862848       -3.52081237223402        2.42333489933179
H            7.32926013945336       -3.41062397089425        1.32842121767267
H            7.74646915333367       -1.71710610754923       -0.41925910304933
H            5.96672116537675       -0.15033141235694       -1.07385035483385
H            2.27390497308478        1.45488428242581       -1.86043300829239
H            2.74356710182202        3.81286642494534       -2.34116447217097
H            4.56530760202591        4.98696937352860       -1.15706934300266
H            5.89703035920745        3.78028487838670        0.53772827213567
H            5.40965536116257        1.42851799392247        1.04953332661353
H           -0.88901288149844        1.83541427092899        0.52355329893575
H           -2.66356830476447        2.09632894682078        2.23630585654213
H           -4.42896718765480        3.76287030168025        2.63650810744102
H           -6.29218050249051        4.00028863943522        1.03554856841982
H           -6.36262593661793        2.57899460010028       -0.98152698546288
H           -4.59300872708730        0.92446539694348       -1.38850118415624
H           -3.87740711683329       -2.34432510802692       -2.16958663446256
H           -6.17201009179364       -3.22961279475845       -2.24443235656327
