58
 energy: -89.016563111328 gnorm: 0.000026307920 xtb: 6.7.1 (edcfbbe)
C           -6.71925845317091       -2.42386972371856       -0.08502611095547
C           -6.26240390722675       -1.61873374698466        0.94518918978192
C           -4.96724366437787       -1.13694211514336        0.93034487803001
C           -4.10791987351721       -1.45667991538416       -0.11766040053421
C           -2.72049672754010       -0.96118977158901       -0.13517952093309
C           -1.69084544458140       -1.85211127488782       -0.33186010903654
C           -0.35536488435924       -1.42682176917939       -0.29993059204552
N            0.64889931809878       -2.31148718585617       -0.51791424899574
C            1.86672229142586       -1.87073019593717       -0.45438530936441
C            2.17102085586993       -0.50293675655150       -0.17234948853060
N            3.47263364854831       -0.06527520901129       -0.12300809826500
C            3.77384544784359        1.30630958834177       -0.25325986938924
C            4.74805045120881        1.87895372507818        0.55971786345021
C            5.06780985958723        3.21646760026248        0.42214847654538
C            4.41784463969288        3.99736304410758       -0.51848996595989
C            3.44629527625658        3.42943729091304       -1.32589940778164
C            3.12573945599457        2.09110669380093       -1.20149311120771
C            4.52613454014405       -0.95354496321865        0.16001098905250
C            5.71947848468941       -0.85615813915905       -0.55237048666256
C            6.76441784291580       -1.71620492629727       -0.27452672495371
C            6.63308236394632       -2.68257018504396        0.70955561388476
C            5.45014221496311       -2.77864862641606        1.42345068682229
C            4.40223006653030       -1.91722716284050        1.15829436259942
N            1.20983169418225        0.37975583286310        0.00298847803663
C           -0.06257820828422       -0.05951726739021       -0.05297391402160
C           -1.12472198609945        0.84229737569393        0.12699343767802
C           -2.43037330784235        0.41373335027964        0.08192221269305
C           -3.51527309587741        1.40104625229469        0.22339554477335
C           -3.50358630979956        2.30966895431642        1.27773171002971
C           -4.51602736869881        3.24179957814738        1.41215632614491
C           -5.54700988644246        3.28640662918274        0.48905313413989
C           -5.55760992269341        2.39705342075432       -0.57266807241501
C           -4.55090180114395        1.45962804639797       -0.70548561728724
C           -4.57077964635596       -2.27948450541787       -1.14066008468268
C           -5.86904525155805       -2.75496896809625       -1.12643707998650
H           -7.73370123760049       -2.79443303613062       -0.07466856328165
H           -6.91872041627295       -1.36490835086571        1.76479694118470
H           -4.61223742130205       -0.51826054762512        1.74142959732910
H           -1.88876296828460       -2.90178428850493       -0.48821046974982
H            2.65428419662352       -2.58353098597761       -0.66100639332826
H            5.25039039116814        1.27285278643205        1.29965747213405
H            5.82427137106003        3.65124886266533        1.05876571052473
H            4.66664571067288        5.04286945436239       -0.62130382883855
H            2.93814936014817        4.03131207351963       -2.06474615813883
H            2.37274886911006        1.65181204254516       -1.83641953862465
H            5.81698736190991       -0.10328458499280       -1.32063550901579
H            7.68439227901949       -1.63528261081030       -0.83406808178440
H            7.45015374042531       -3.35506456458835        0.92179428527863
H            5.34431635255678       -3.52243902358090        2.19906924375352
H            3.48645381319702       -1.98088600888062        1.72800934344230
H           -0.88708880334802        1.88353815808741        0.28400832810453
H           -2.70448509579133        2.26807284714352        2.00413475035995
H           -4.50110303755233        3.93529639612740        2.24052004907750
H           -6.33838381853303        4.01373827071680        0.59504823638201
H           -6.35482711648341        2.43342416795382       -1.30066503875040
H           -4.55799971986817        0.77445800684415       -1.54038945549212
H           -3.91079652677879       -2.52917946916046       -1.95926354366505
H           -6.21912761260634       -3.38517837117713       -1.93120269047566
