58
 energy: -88.958875662821 gnorm: 0.000061312615 xtb: 6.7.1 (edcfbbe)
C           -6.70479234446309       -2.45266302262018       -0.22185958095471
C           -6.26817432140619       -1.68373337471496        0.84443708344477
C           -4.98062621185592       -1.18312778571113        0.86091401019573
C           -4.10629140426323       -1.44479952885266       -0.19217425941873
C           -2.72922214129346       -0.92923098536149       -0.17111873374380
C           -1.67873231315348       -1.80617722369817       -0.43702029239449
C           -0.35182391064121       -1.40398903909494       -0.39443918805974
N            0.67212296492213       -2.21572090286389       -0.66785446280362
C            1.92468095549022       -1.79696044143363       -0.58037276913365
C            2.21915468571971       -0.50748724518596       -0.14331195517589
N            3.52329867045242       -0.05546004107092       -0.05428351942946
C            3.80282321278050        1.28662162616256       -0.34027982887262
C            4.82928454933053        1.94424691562262        0.33907792961491
C            5.08639836964182        3.27632700105951        0.08518929617025
C            4.32590001919610        3.97517002959694       -0.83936007534827
C            3.30389126381062        3.32706842930817       -1.51188092278931
C            3.04334091443745        1.99117061446945       -1.27272848546352
C            4.55051859981691       -0.94271037981852        0.28962020565336
C            5.78688248301864       -0.86884053621806       -0.35307788814235
C            6.79676889708614       -1.74887732696184       -0.01633378632649
C            6.59052552576888       -2.71463415398185        0.95562769443629
C            5.36296677385561       -2.79331354177954        1.59446361711451
C            4.34762167532825       -1.91603094569641        1.26820469320853
N            1.21853789116573        0.32938081947213        0.15461312773982
C           -0.05327879800697       -0.04045779501392       -0.00240467546032
C           -1.11624931249435        0.81850470858877        0.24104736247477
C           -2.44429943381949        0.40611425446517        0.14603448975605
C           -3.50884460849852        1.40274762040383        0.33688239464032
C           -3.47337635071982        2.27482624857469        1.42242057444338
C           -4.46735647564891        3.21937310485299        1.59869986944956
C           -5.50654077750314        3.31485167048403        0.68862607947034
C           -5.54286386261253        2.46213946032245       -0.40251288085805
C           -4.55343390229788        1.51425208190523       -0.57878169991905
C           -4.55039666957325       -2.23113587694591       -1.25260064105602
C           -5.84097231155596       -2.72628697816510       -1.26896651738579
H           -7.71316655247093       -2.83955590929889       -0.23519778275486
H           -6.93473202609411       -1.47446529971713        1.66853704703104
H           -4.64116041956416       -0.59402994753548        1.70011627423683
H           -1.88536776660953       -2.84038818236614       -0.66580690829152
H            2.70935201931584       -2.46839182010138       -0.88943649142722
H            5.41012915534174        1.40845558857298        1.07519770408464
H            5.88000788688854        3.77550846390659        0.62125095081823
H            4.52885099868824        5.01753075927645       -1.03229248439310
H            2.70778051930785        3.86245645899549       -2.23582464974352
H            2.25604453648652        1.49010568338776       -1.81409308875115
H            5.94375339971342       -0.12311664253919       -1.11842090220677
H            7.74841865569491       -1.68547183115782       -0.52265361119265
H            7.38114945623506       -3.40247738491685        1.21334761028898
H            5.19684706184323       -3.53976786652141        2.35668725039840
H            3.39439003746511       -1.97052062093388        1.77267650890655
H           -0.88579041926353        1.84853930124315        0.46691706474278
H           -2.67070791004750        2.19361937146668        2.14157054141032
H           -4.43219839142891        3.88322468269685        2.45067463159038
H           -6.28323854542028        4.05257127064436        0.82716550773228
H           -6.34605274430061        2.53786927904127       -1.12113546226849
H           -4.57998691065127        0.86030224002424       -1.43798164026417
H           -3.88227266642106       -2.43550290379369       -2.07722573806733
H           -6.17516665388944       -3.32731419987441       -2.10253359802730
