  100
       -152.52927898
 C         -4.6646262024        5.8392438003       -2.1303693052
 C         -4.8034487708        5.3687790604       -0.6755989666
 C         -4.4224966125        6.5343743098        0.2411412317
 C         -6.2623863533        4.9873309836       -0.3869406315
 C         -3.9273797985        4.1456683321       -0.4631190665
 C         -4.1501299564        3.0024586970       -1.2296203642
 C         -3.3950496940        1.8605847960       -1.0669667403
 C         -2.3925157371        1.8242916115       -0.1031881183
 N         -1.6075592617        0.6720655256        0.0832217865
 C         -2.0199749218       -0.6485192219        0.0620782915
 C         -3.3830913095       -1.0661835985        0.1464087973
 C         -4.3768920259       -0.2890852038        0.7749680322
 C         -5.6805068559       -0.7032963713        0.8130675310
 C         -6.0845524484       -1.9219637590        0.2356350197
 C         -7.4682392619       -2.3320979397        0.2454349661
 C         -7.8456712513       -3.6762393135        0.1473316932
 C         -9.1715903307       -4.0922294350        0.1482003895
 C        -10.2166650368       -3.1943379307        0.2309514029
 C         -9.9023054869       -1.8353155998        0.3283118753
 N        -10.7689433449       -0.8224307250        0.4044375923
 S         -9.9362495635        0.5624724289        0.4875947748
 N         -8.4366261355       -0.0664988903        0.4314753773
 C         -8.5295612778       -1.3917432981        0.3494062113
 C         -5.0815174842       -2.7184685764       -0.3507718168
 C         -3.7760043306       -2.3076270125       -0.3916457197
 C         -0.8878274273       -1.4968671554        0.0448953918
 C          0.2162102829       -0.6693198382        0.0835151070
 C         -0.2372980598        0.6789812164        0.0882285989
 C          0.8667404486        1.5071612842        0.0496030924
 C          1.9981491299        0.6588217792        0.0591189791
 C          3.3632745927        1.0713972720        0.1481722923
 C          3.7669950000        2.3085882841       -0.3900710768
 C          5.0761926498        2.7091988265       -0.3441121500
 C          6.0694436760        1.9047540051        0.2465409903
 C          7.4577884741        2.3020323687        0.2613214307
 C          7.8485327931        3.6426329223        0.1866218276
 C          9.1796280999        4.0441642629        0.1977380472
 C         10.2142374192        3.1339490678        0.2668113307
 C          9.8853088256        1.7765776097        0.3380961188
 N         10.7399348552        0.7524370987        0.3962622655
 S          9.8911125228       -0.6238311168        0.4518687275
 N          8.3991783534        0.0226715847        0.4057437652
 C          8.5078823516        1.3482545869        0.3490337144
 C          5.6545152980        0.6911922669        0.8252494755
 C          4.3474536403        0.2879948134        0.7834147244
 N          1.5862086492       -0.6619241413        0.0729803352
 C          2.3783640273       -1.8078074634       -0.1213828667
 C          3.3804024129       -1.8279297222       -1.0862130718
 C          4.1587715731       -2.9544641364       -1.2444904423
 C          3.9595360251       -4.0986587773       -0.4729988073
 C          4.8740326069       -5.2965660957       -0.6660167753
 C          6.3116737772       -4.8709512792       -0.3344113519
 C          4.7926605887       -5.7680795978       -2.1247190858
 C          4.5017796282       -6.4753803571        0.2371917511
 C          2.9267354557       -4.0743073332        0.4562216817
 C          2.1443404207       -2.9469131842        0.6350109712
 C         -2.1413938685        2.9587931665        0.6548870647
 C         -2.9008387202        4.1010510619        0.4723311266
 H         -4.9869047673        5.0723115580       -2.8287012259
 H         -3.6279137991        6.0870410216       -2.3492820972
 H         -5.2730005027        6.7256664561       -2.2951142406
 H         -3.4006138067        6.8594937649        0.0593759906
 H         -5.0815806181        7.3775088715        0.0457716379
 H         -4.5307910703        6.2612534021        1.2881084082
 H         -6.3644586881        4.6383846221        0.6382890516
 H         -6.6062564933        4.1976869730       -1.0486543162
 H         -6.9079726752        5.8520177377       -0.5231033419
 H         -4.9283217137        2.9947677467       -1.9764828484
 H         -3.5843032072        0.9918207533       -1.6789577636
 H         -4.1010874575        0.6313577677        1.2662662201
 H         -6.4214186901       -0.0916982000        1.3011025776
 H         -7.0761281984       -4.4318205334        0.1057079333
 H         -9.3860892398       -5.1491003698        0.0831977360
 H        -11.2471800388       -3.5093255409        0.2234476270
 H         -5.3479111695       -3.6521916083       -0.8218783151
 H         -3.0389820234       -2.9205371596       -0.8886395155
 H         -0.9178914435       -2.5675431072        0.0545764558
 H          0.8974373204        2.5778126849        0.0635144004
 H          3.0363646782        2.9260256603       -0.8913729743
 H          5.3534427278        3.6401678285       -0.8147071475
 H          7.0861968703        4.4063610925        0.1560808937
 H          9.4056597552        5.0995850155        0.1521756749
 H         11.2479748347        3.4378371443        0.2674238473
 H          6.3884034988        0.0746139942        1.3176434889
 H          4.0618756043       -0.6281949251        1.2768766754
 H          3.5530267302       -0.9570008963       -1.7000647718
 H          4.9384558278       -2.9328856114       -1.9894134296
 H          6.3747048700       -4.5301172053        0.6967146290
 H          6.6456501690       -4.0622465821       -0.9780083520
 H          6.9893635457       -5.7120699703       -0.4620563303
 H          5.4225334766       -6.6430109323       -2.2687890639
 H          5.1246434749       -4.9956979167       -2.8124219623
 H          3.7687039477       -6.0349124341       -2.3782617815
 H          5.1865811351       -7.3006811338        0.0545318864
 H          4.5785562420       -6.2044878108        1.2874880843
 H          3.4928740463       -6.8249723208        0.0300516603
 H          2.7195401548       -4.9349969581        1.0703374699
 H          1.3614039745       -2.9415427402        1.3790098440
 H         -1.3605505492        2.9395362551        1.4006988273
 H         -2.6788536136        4.9581988940        1.0861965714
