100
 energy: -152.587498614193 gnorm: 0.000049123112 xtb: 6.7.1 (edcfbbe)
C           -6.58155853978970        4.58177935018993       -0.30604103428439
C           -5.17138852469632        5.07720999241859        0.04485551164637
C           -4.79683038708154        6.18765172706707       -0.94041509884045
C           -5.16580035620360        5.67189851786871        1.46019570832614
C           -4.20922081805110        3.90115877189280       -0.00353739199877
C           -3.11002720640263        3.85475878067832       -0.85220931099048
C           -2.26507484048876        2.76013162016763       -0.87750390609790
C           -2.49573801433182        1.67299363852619       -0.04450396176049
N           -1.62449689009477        0.57815117420574       -0.07094230975572
C           -1.94801134603156       -0.76285222351927        0.07495578805759
C           -3.30486996818411       -1.26963063058655        0.00150302656380
C           -3.68042192308263       -2.37757246836691        0.76486938952794
C           -4.95778101868286       -2.88873161394985        0.69466485378068
C           -5.91448049373380       -2.30827694620328       -0.13880207805471
C           -7.28111765140294       -2.82576040521492       -0.19703728318296
C           -8.36773559343139       -2.00112830376807       -0.39886093042233
C           -9.68829418585003       -2.47828393646222       -0.46334008897634
C           -9.98504991805799       -3.80689096904839       -0.33282316782675
C           -8.91654958542571       -4.69322137207122       -0.12576709004633
N           -8.98570753222206       -6.01787494211244        0.01854927471960
S           -7.49844164900399       -6.59047629968972        0.22100336750600
N           -6.69294822875307       -5.20221639123980        0.14157116954218
C           -7.56116064401705       -4.20834962091721       -0.04926122029070
C           -5.53325227238531       -1.21535205009205       -0.91999594569771
C           -4.25393858211470       -0.70940865613884       -0.85806361135702
C           -0.79155225003701       -1.52035725415498        0.18019398732896
C            0.27553060523484       -0.61490576746369        0.10069730607044
C           -0.25823163604991        0.67183323863879       -0.06352004719895
C            0.80897909892518        1.57680355759969       -0.14393894352734
C            1.96553751720400        0.81891367931667       -0.03951656159352
C            3.32140340834739        1.32984431926982        0.03013153172828
C            4.27636549783383        0.77498476596597        0.88619259978457
C            5.54892747115225        1.29803319273974        0.95446621747020
C            5.92010132791565        2.39404194630769        0.17346413271018
C            7.27217601949640        2.94665133817499        0.25429049378493
C            7.98658217697623        2.96935254768233        1.43323324523584
C            9.28642676811093        3.49593005255056        1.52937545975804
C            9.93667249109095        4.02146596596235        0.44711121699114
C            9.25689914811837        4.02235638873224       -0.78095936396834
N            9.70887992163289        4.47586263941062       -1.95160050279492
S            8.57148951691993        4.25001798548509       -3.06332739202787
N            7.45226080235729        3.57388283233497       -2.12920633581806
C            7.92032955572394        3.49233077580017       -0.88324422620093
C            4.96448026408291        2.95351693567087       -0.67530874019184
C            3.68978028273265        2.43529858530364       -0.74021520933932
N            1.64184729578433       -0.52133013766790        0.10813707815848
C            2.51047346864298       -1.61881642478451        0.08043162360359
C            3.59005027031649       -1.66657753206177       -0.79318194630806
C            4.42790702363949       -2.76611108402492       -0.80673409478689
C            4.21242750204040       -3.85519294717235        0.02983587252804
C            5.11165662466648       -5.08097038540102        0.04473353011885
C            4.27662842719772       -6.32045006283181       -0.30637759529257
C            5.71459367653458       -5.24005985841066        1.44781120319203
C            6.26211638030321       -4.98077208776284       -0.96035660089523
C            3.11446330483543       -3.79933448242114        0.88553299490164
C            2.27537820587608       -2.70458927655307        0.91728134461760
C           -3.57907941185413        1.71398613963084        0.82828343593879
C           -4.41892353026618        2.80775811490387        0.83496414199058
H           -7.28466279101998        5.41190180927939       -0.29195160126428
H           -6.92576551586369        3.83218051901145        0.40103931643406
H           -6.58794158127330        4.14075316510637       -1.30076936491185
H           -5.51875703124108        6.99821091491022       -0.86377738432059
H           -3.81281082504841        6.59344954223551       -0.71748444132683
H           -4.80970622112558        5.82324369969761       -1.96503332267341
H           -5.83595392543287        6.52752704940836        1.50958208838944
H           -4.16355078349722        6.00248355145843        1.72481162902224
H           -5.48966654988486        4.94336950955879        2.19813747786301
H           -2.89524497693999        4.67390479711168       -1.51869505790580
H           -1.42631280010274        2.73861554853218       -1.55684278572376
H           -2.95928687592656       -2.82532554017817        1.43228614475356
H           -5.23021513375081       -3.73938366358601        1.29886945934133
H           -8.20554811573164       -0.93748227158439       -0.49165914721189
H          -10.48517551655175       -1.76569089082357       -0.61839414507880
H          -10.99321615158677       -4.18436157661567       -0.38242320629425
H           -6.24033578498852       -0.77831033628528       -1.60988050524388
H           -3.97810056323770        0.11717835571949       -1.49612285388452
H           -0.75183879805643       -2.58902469938234        0.25160563483601
H            0.76917598775424        2.64543860940322       -0.21634812496278
H            4.01348209764358       -0.06576954506494        1.51111287711843
H            6.27449032366188        0.83631175594122        1.60821455384602
H            7.52413806456278        2.58752376740272        2.33127147408185
H            9.77597445609281        3.48313199922790        2.49216676826678
H           10.93327783481567        4.42680824275110        0.50894223008993
H            5.23097284933288        3.80270371718949       -1.28424557197746
H            2.96448637079138        2.87654710171068       -1.40748790913670
H            3.77410719942351       -0.84098513052174       -1.46395139673635
H            5.25546088697471       -2.75837309983800       -1.49661126935997
H            3.82470045545646       -6.20276004611105       -1.28908954787389
H            3.48197566698099       -6.48220813952275        0.41649000877785
H            4.90865362636634       -7.20586434058262       -0.32068184130381
H            6.37541197378461       -6.10385490828172        1.47591184631084
H            4.94158927066759       -5.37891328652440        2.19850405099561
H            6.29114920648936       -4.35564193267045        1.71115090687640
H            6.90169337643459       -4.12912487754849       -0.74043087729246
H            6.87097433274704       -5.88095443779761       -0.90455567858738
H            5.88677005187447       -4.89239630590439       -1.97720312442356
H            2.90480789783444       -4.62261061911603        1.55159661181968
H            1.43918860774642       -2.67751307501794        1.59954806859788
H           -3.75880599729087        0.88797970958153        1.49966421208949
H           -5.25226265486310        2.80418191333549        1.52099028190289
