100
 energy: -152.531068962345 gnorm: 0.000147764133 xtb: 6.7.1 (edcfbbe)
C           -4.68913045451650        5.83783237109494       -2.14447724106709
C           -4.80363110442258        5.36409131536205       -0.68865383161897
C           -4.41713857788332        6.53079917487701        0.22434561825176
C           -6.25570070816323        4.97225072157475       -0.37962144015248
C           -3.91795428977413        4.14569563577186       -0.48912573366767
C           -4.13933897221548        3.00459284078461       -1.25916473742158
C           -3.37957051358057        1.86481597088530       -1.10338669425481
C           -2.37370725990984        1.82861427681451       -0.14314681519931
N           -1.58845046735770        0.67625167972563        0.04085064024547
C           -2.00308056288713       -0.64384892264098        0.02347455633625
C           -3.36689669514585       -1.05934572142952        0.11474699714150
C           -4.35464187205441       -0.28043704751413        0.74992612135284
C           -5.65757543930799       -0.69570852287674        0.80320115798913
C           -6.06564622015250       -1.91726826999990        0.23588953281285
C           -7.44805905415386       -2.33243536005040        0.26980159046333
C           -7.82108255992169       -3.67882134805799        0.19502054111849
C           -9.14532229921804       -4.10013325432850        0.22472567799088
C          -10.19230088399325       -3.20562158443690        0.31468276283681
C           -9.88189881698816       -1.84389147634164        0.38800071899378
N          -10.75091067484668       -0.83332949893884        0.46583897243447
S           -9.92225766359452        0.55550873885689        0.51569379984587
N           -8.42163732250716       -0.06821079769201        0.44182766738852
C           -8.51086440269038       -1.39502141537863        0.37920677075969
C           -5.06933403093169       -2.71322609581607       -0.36170600607482
C           -3.76453857937766       -2.30111525817853       -0.41819632305787
C           -0.87238405989536       -1.49409030291414        0.00942659833395
C            0.23296794422180       -0.66836747603206        0.04761740383224
C           -0.21845885594294        0.68089176749499        0.04765140402799
C            0.88686021188539        1.50671501151664        0.01168288358025
C            2.01761860858903        0.65646638380246        0.02736937481752
C            3.38094459908578        1.07204798104664        0.12313946471789
C            3.77999255620250        2.31495827861959       -0.40632020926429
C            5.08415432780842        2.72794797231033       -0.34370289605703
C            6.07871953404420        1.93190380246056        0.25703197785406
C            7.46022836271846        2.34859006660201        0.29842116701624
C            7.83191803491629        3.69575974320337        0.22582299423552
C            9.15524828104267        4.11880134481952        0.26214250028569
C           10.20308200750703        3.22554163067704        0.35703336791997
C            9.89418502498196        1.86345482307203        0.42906784486888
N           10.76431249695752        0.85421182004239        0.51153180944672
S            9.93741177088382       -0.53596912374398        0.55784523878397
N            8.43613193135707        0.08576916406314        0.47617487660863
C            8.52380432703576        1.41262633452298        0.41353443494562
C            5.66919698886209        0.70865997743575        0.81997785232827
C            4.36690351463190        0.29247999943970        0.76049530070834
N            1.60297213369304       -0.66370266512405        0.04306677024164
C            2.38889343213394       -1.81551266093769       -0.14141958434160
C            3.39675366366962       -1.84946007817073       -1.09966173276106
C            4.15785770840745       -2.98832586331888       -1.25554281032630
C            3.93576589571070       -4.13079985371887       -0.48774811635120
C            4.82383829674371       -5.34762751293553       -0.68618181483612
C            6.27357982672703       -4.95435724581221       -0.36807485476287
C            4.71817670065052       -5.81772341210787       -2.14383931004026
C            4.43391334304952       -6.51738701618682        0.22144203370196
C            2.90186754910684       -4.08969030999809        0.43975195798235
C            2.13645775698476       -2.95040068690820        0.61566436623712
C           -2.12210460561685        2.96205559361436        0.61638889976606
C           -2.88621243089869        4.10224240666450        0.44066035152496
H           -5.02278270508383        5.07265816037651       -2.83944563849592
H           -3.65630264781839        6.08672994704759       -2.37988479464027
H           -5.30061872417516        6.72433245810056       -2.29700477303902
H           -3.39897271851787        6.86061275171314        0.03036592987049
H           -5.08252917717396        7.37099644913030        0.03767137904948
H           -4.51152277457543        6.25661539282467        1.27243507230936
H           -6.34111063193342        4.62354588111358        0.64728569619067
H           -6.60236377510977        4.17910929941927       -1.03575016319874
H           -6.90970746573558        5.83189909529848       -0.50771989210281
H           -4.92086284170535        2.99660072098855       -2.00254522151297
H           -3.56862801772340        0.99706891684628       -1.71693569895835
H           -4.07467384540034        0.64180126492962        1.23542895491419
H           -6.39385991426339       -0.08304471535226        1.29690394178631
H           -7.04888709838883       -4.43152245226884        0.14962441685753
H           -9.35638154018737       -5.15860454076313        0.17770443775169
H          -11.22150684747729       -3.52471608454394        0.33049697731495
H           -5.34081105325704       -3.64802748611968       -0.82790391845906
H           -3.03241863317369       -2.91405903274608       -0.92246960813650
H           -0.90467636232867       -2.56468633610150        0.02113769974444
H            0.91904592599958        2.57730344985210        0.02401151556059
H            3.04955968207997        2.92808612944443       -0.91281365063335
H            5.35682780496001        3.66361250938661       -0.80744780441031
H            7.05888959424697        4.44737565428610        0.17691103824414
H            9.36524147987433        5.17754237011010        0.21639748355219
H           11.23176748073088        3.54605290098218        0.37761433652959
H            6.40395580322944        0.09567775127719        1.31555665135555
H            4.08567239564702       -0.63088119162874        1.24311256316232
H            3.58638343692445       -0.98058577766133       -1.71143961845173
H            4.94111741654314       -2.97845626760185       -1.99707000430188
H            6.35264245554004       -4.60764058792093        0.66001760948984
H            6.62266021631445       -4.15927659003109       -1.02058987976985
H            6.92960078021149       -5.81274898050113       -0.49423414477404
H            5.33174418560253       -6.70300050942534       -2.29513256161415
H            5.05477670860709       -5.05044782109578       -2.83504546106074
H            3.68704920434042       -6.06743765909087       -2.38572459539965
H            5.10034681039391       -7.35677794456673        0.03486064157891
H            4.52382256044184       -6.24661215387691        1.27080378853854
H            3.41665407127817       -6.84682193502070        0.02210225488013
H            2.67938191020926       -4.94691918923511        1.05334143314078
H            1.35101620331054       -2.93315643712328        1.35664776288248
H           -1.33821349771269        2.94302131021059        1.35897309685738
H           -2.66437340630106        4.95830564470198        1.05611031020757
