100
 energy: -152.530804372659 gnorm: 0.000105627286 xtb: 6.7.1 (edcfbbe)
C           -6.43211099606668        4.73352923639624        0.19332762580406
C           -4.99630780911563        5.21073140285797       -0.06850280230367
C           -4.90489158016683        5.85320984834850       -1.45976884345803
C           -4.64799035936825        6.27735372461881        0.97320013846126
C           -4.06783017247976        4.00943539995528       -0.01011476934241
C           -4.25181543398177        2.95773832191482       -0.90683105208456
C           -3.45582050352575        1.83253446896314       -0.87912209605905
C           -2.45031219286052        1.71850716102591        0.07535125615953
N           -1.63452156502731        0.57395045987002        0.13359944641989
C           -2.01741873051854       -0.74649512298113       -0.02402786374757
C           -3.37116023717930       -1.20066193106930        0.02334488695036
C           -4.37557240988841       -0.51312983877763        0.73346172780664
C           -5.67052799153723       -0.95579304955633        0.73535505792587
C           -6.05296698063200       -2.11770171506539        0.03980603056305
C           -7.42819343082997       -2.55712201111663        0.01843422051095
C           -7.77746430182910       -3.89480163309335       -0.19512092427140
C           -9.09477829114165       -4.33771945879665       -0.22237376278516
C          -10.15731688681621       -3.47321752426089       -0.05499261278369
C           -9.87063056634894       -2.12100258552615        0.15808850636602
N          -10.75704902136436       -1.13700333025093        0.32704462416720
S           -9.95195906538624        0.25255348329313        0.52542953936986
N           -8.44049812968402       -0.33715872423955        0.40633619479104
C           -8.50728279440968       -1.65220900550270        0.20992515011422
C           -5.03902991551289       -2.82930472513582       -0.62987342263882
C           -3.74223349506776       -2.38881699615075       -0.63585004653576
C           -0.86677765050160       -1.56194946182033       -0.13638652142528
C            0.21878395105383       -0.71646399604210       -0.02710605791715
C           -0.26521917413951        0.61047975485845        0.14531363861093
C            0.81992852074064        1.45649815400245        0.25227402206165
C            1.97103664912517        0.64138975824792        0.13909956345045
C            3.32278680917490        1.09934225185861        0.08288253650446
C            3.69087661590688        2.29676149796224        0.72740382779968
C            4.98321206469296        2.74878610275525        0.70312946308537
C            5.99653153599587        2.04050334256262        0.02850266363300
C            7.36570750431377        2.49779295184716        0.02339760586713
C            7.69974911994375        3.84274926530464        0.21758682535299
C            9.01052045134893        4.30462286079463        0.21714463058584
C           10.08249932442595        3.45362284755300        0.03940364639993
C            9.81156644477112        2.09547435440611       -0.15529583721575
N           10.70914825020657        1.12278765269679       -0.33064807949284
S            9.92108315665381       -0.28018367271223       -0.50160848946973
N            8.40343036862397        0.28899601038893       -0.36129492316985
C            8.45443222866703        1.60658970596185       -0.17839456690157
C            5.61797478750872        0.86514798945538       -0.64676396457820
C            4.32729770864654        0.41078718495580       -0.62646107885230
N            1.58838856394933       -0.67961565309744       -0.01628644672456
C            2.40231538548313       -1.82490455583406        0.05092859178947
C            2.18027873378168       -2.88132872535994       -0.82043573745695
C            2.97307127412166       -4.01381455573801       -0.75883228625464
C            4.00517961626610       -4.12526413688438        0.16480361695168
C            4.92196362543402       -5.33448147849011        0.24203046322770
C            6.36288239124625       -4.87605046276612       -0.02485918575043
C            4.56403277361538       -6.41321032190397       -0.78380932987371
C            4.82225792936865       -5.95496791708994        1.64272653925685
C            4.19748112799907       -3.06265614743833        1.04678027256930
C            3.40875054108531       -1.93275506981700        1.00518972890687
C           -2.23383112610935        2.76602377455225        0.95870669136663
C           -3.03398840099038        3.89402711221953        0.91109996636675
H           -7.11695748877666        5.57816957827594        0.16736032528295
H           -6.50013945027188        4.26394146144975        1.17226112058372
H           -6.75342638526823        4.01071871195216       -0.55100783463863
H           -5.54982026844668        6.72767445899207       -1.50931080542080
H           -3.88300564168583        6.16637345560492       -1.66413618218231
H           -5.21213141214408        5.16142091825628       -2.23874385460031
H           -5.34327359439720        7.10933524200037        0.88430674220036
H           -3.64279613358078        6.66320414522609        0.81899573264440
H           -4.72899338817715        5.88101235434723        1.98263665087815
H           -5.03281397262462        3.00962887046556       -1.64895352815165
H           -3.61715319197657        1.03457525443149       -1.58791745298945
H           -4.11510226304687        0.35704917229689        1.31603045328503
H           -6.42011095500875       -0.41246422745455        1.28682740650772
H           -6.99200657773688       -4.62657133208958       -0.30711647126021
H           -9.28774967519204       -5.38929889106676       -0.37746217197917
H          -11.18114497759639       -3.80842199796170       -0.08297104508793
H           -5.29081195151709       -3.71589786267232       -1.19155876960108
H           -2.99675382536737       -2.93272202851497       -1.19645456730363
H           -0.87291824469275       -2.62961176237940       -0.22316532074850
H            0.82499100425950        2.52425518202833        0.33768779552744
H            2.94659045215166        2.83997938651283        1.29021572644493
H            5.23262484218545        3.64330945557793        1.25315050432044
H            6.90604347683301        4.56451472119927        0.33590496322794
H            9.19098850288491        5.36038500134429        0.35825209958576
H           11.10168496227017        3.80371033239611        0.04569309311739
H            6.36721401966264        0.32164129459090       -1.19856584687793
H            4.06943904618789       -0.46943546802889       -1.19496424034669
H            1.39717591866455       -2.80649659175103       -1.56017422879059
H            2.77355601701836       -4.80850540173214       -1.45848075502606
H            6.69108452760637       -4.14670767298076        0.71004931703793
H            6.43676400211259       -4.42062637755843       -1.01004640692390
H            7.03875252140930       -5.72743894010648        0.01336147542657
H            5.25010357660599       -7.25118108558051       -0.68072587932756
H            4.65108020565659       -6.03341012258676       -1.79907912421242
H            3.55446573653848       -6.78577517137606       -0.62557766479213
H            3.79710797289555       -6.25527230491972        1.85004285652725
H            5.45875168353223       -6.83466434433473        1.70661033242611
H            5.13479249121179       -5.25442452990580        2.41171200604995
H            4.97865159525753       -3.11004483027118        1.78905291043743
H            3.57569927120786       -1.12699079133091        1.70379202747340
H           -1.45008576264200        2.68701589338230        1.69738461393526
H           -2.83943488880673        4.68142112037572        1.62033251924602
