86
 energy: -141.048484902421 gnorm: 0.000188542869 xtb: 6.7.1 (edcfbbe)
C           -8.14405057269025       -2.04959980776842       -0.34018206054923
C           -7.05087466934533       -2.64140394353534       -1.23003751970053
N           -5.76167627755522       -2.60914178766593       -0.58951879324894
C           -5.23102294996809       -3.59848799231124        0.20427762842327
C           -5.74573107226411       -4.84566306426571        0.53403300303793
C           -4.99066244568490       -5.66269382208660        1.35349521534935
C           -3.74899005218269       -5.25863504190249        1.84115368902323
C           -3.23069756842947       -4.01951009001733        1.52107943377409
C           -3.97176487463656       -3.17971539255221        0.69973816111221
C           -3.75536702440140       -1.85771036812783        0.18413153419408
C           -2.72677209827651       -0.93858937092128        0.32013265038457
C           -2.83627249442611        0.29864750383499       -0.30312341910323
C           -1.75256435225961        1.28718500886154       -0.17088190658644
C           -1.98779341089067        2.59645161859177        0.07918024551317
C           -0.92928286237825        3.61754211986793       -0.00379902381185
C           -0.05591625886998        3.66006349516878       -1.08968641915804
C            0.92259524755525        4.63312033913146       -1.16642305307378
C            1.04463973689738        5.58083749898691       -0.16280954135044
C            0.17202151543736        5.55722026789527        0.91305558915851
C           -0.81187862219467        4.58902118279709        0.98915962999664
C           -3.32142834624660        3.10496487621214        0.44213540575226
C           -3.80876515799306        4.27394240222331       -0.14057845609990
C           -5.05283179676428        4.76751286304711        0.20600006251893
C           -5.82392909494802        4.11056572258305        1.15096450009025
C           -5.33967776202554        2.95943992395216        1.75181927050880
C           -4.09957290269726        2.45971137171332        1.40222690358612
C           -0.39162016180791        0.75597052249775       -0.33761298828616
C           -0.11050316054461       -0.15278564128076       -1.35827552337751
C            1.16236037909711       -0.65746203013374       -1.52567517997320
C            2.19839100550516       -0.27124290163248       -0.67441993525654
C            3.56035457123600       -0.77780144500591       -0.87082647494118
C            3.79414722529216       -2.09844171292913       -1.26531774283292
C            5.08171763513192       -2.56960330150037       -1.45236283114972
C            6.15785641297640       -1.72005438280558       -1.25788846092725
C            5.94007150798244       -0.41256853773257       -0.86579593261693
C            4.66071115535576        0.06077997355033       -0.66490278850332
S            7.34495574340788        0.66770858821801       -0.59973647113881
O            7.92696659293231        1.03661645580026       -1.86438805628111
O            6.92438104552565        1.75944535192597        0.24846836214365
C            8.50349023940501       -0.34456030225218        0.32347475762988
C            9.16149566815197        0.17466817304900        1.42426320083814
C           10.05118032411884       -0.62636216328487        2.12595617658922
C           10.26831517515929       -1.93845624056373        1.73208248592270
C            9.59652748702131       -2.45797138776080        0.63460450473134
C            8.71887518886642       -1.65176138407486       -0.06823467274534
S            7.83428868091278       -2.29851805873647       -1.48932500573348
O            8.38574687206229       -1.73548417717734       -2.69512103922241
O            7.83510978153710       -3.74102412224430       -1.40399063253613
C            1.91174624142752        0.61530378696351        0.36502478333274
C            0.63750994444494        1.11330782029683        0.53456305434574
C           -3.96503705630964        0.58562450371169       -1.08521679076883
C           -4.99375431401136       -0.31811155282155       -1.24275015519892
C           -4.89402907829521       -1.54555993578948       -0.59859158507506
H           -7.91500229334467       -1.01382363620826       -0.09978691807022
H           -9.10202764557977       -2.08759966323487       -0.85199543842350
H           -8.21972856294166       -2.61050661129611        0.58864375507973
H           -7.28780291800290       -3.67998955475050       -1.47475553081090
H           -6.98519536388621       -2.07937661352715       -2.16586501460958
H           -6.70713705758891       -5.17559659360593        0.17003693514851
H           -5.37170336890411       -6.63707973484885        1.62415637326793
H           -3.18963643378620       -5.92709716299846        2.47963516202764
H           -2.26951185893686       -3.70536219599897        1.90059089530243
H           -1.85879735603356       -1.17172689707123        0.91966140938203
H           -0.15649183438415        2.93205197290629       -1.88145213170583
H            1.59243268052310        4.65469732707783       -2.01432809864367
H            1.81286439673454        6.33807934831161       -0.22237748639687
H            0.25826352595444        6.29780261158572        1.69539951825263
H           -1.49050604978125        4.57158427137029        1.83060668775266
H           -3.20924544480941        4.78781415092568       -0.87919828587652
H           -5.42180415938884        5.66950439488522       -0.26142623124003
H           -6.79537547724459        4.49747462489015        1.42264785872434
H           -5.93147286231389        2.45022830822681        2.49916131155061
H           -3.72084261914349        1.56885815578783        1.88134736391722
H           -0.89963194196634       -0.44706025644466       -2.03511191987098
H            1.36560430019351       -1.33087416245976       -2.34454434214882
H            2.95921716890692       -2.76725918440548       -1.40532739292701
H            5.27876007729481       -3.59083476864041       -1.73843055568637
H            4.53769398352579        1.08845286899452       -0.36100343398710
H            8.95685351638941        1.19389978040753        1.71196246879234
H           10.56995792943143       -0.22481410185727        2.98246633201943
H           10.95721084243415       -2.56188484499220        2.28048205869675
H            9.72866542876252       -3.47833808971530        0.31080112988762
H            2.69054905076431        0.89438912373958        1.05858632150521
H            0.42900613484458        1.78360751271311        1.35468664828195
H           -4.01979195728066        1.54055843830501       -1.58649666064343
H           -5.84836276975613       -0.06650923014342       -1.85231957722328
