86
 energy: -140.986468850793 gnorm: 0.000183342703 xtb: 6.7.1 (edcfbbe)
C           -7.43576584670931       -4.41821612340299       -2.14147444245697
C           -6.93756906030714       -4.45028363024988       -0.69661229891621
N           -6.77779334897160       -3.12370505846143       -0.15854649087681
C           -7.76921981574793       -2.38474770010833        0.45252108125351
C           -9.08449827853136       -2.72682105810734        0.73310157214181
C           -9.87553815849774       -1.78523011966959        1.36642828967844
C           -9.37886061340459       -0.53094253303133        1.71203761644158
C           -8.06939787940252       -0.18306335042618        1.43524121767995
C           -7.25680778822319       -1.11357953204778        0.80494476151545
C           -5.88683273525489       -1.09535263271655        0.36500755865798
C           -4.89009213610875       -0.14722181737872        0.42435336915111
C           -3.62291027726335       -0.43622142041544       -0.11525071446864
C           -2.58230628000018        0.55217983873245       -0.10490396768486
C           -2.95176002881650        1.95934110162421       -0.12055182715326
C           -2.21279780470550        2.89686971959288        0.67565228366383
C           -2.07713947125539        4.24367379077863        0.28331936397717
C           -1.33720498338458        5.12978169219998        1.03439288854003
C           -0.71235607005622        4.71329940220017        2.20277457865234
C           -0.83300050442634        3.38989254681748        2.60769876427575
C           -1.56389873420385        2.49446496550514        1.85994388396132
C           -4.06028747801088        2.37760865215685       -0.92982557624452
C           -4.41617503174933        1.67028865411900       -2.09558548232984
C           -5.51510279180453        2.03632492189703       -2.84015035876417
C           -6.30316656707979        3.11163208451084       -2.45148082473335
C           -5.97250506285249        3.82103140719772       -1.30364100698059
C           -4.87103680359478        3.46855888557815       -0.55635532400984
C           -1.20656199707452        0.18778097178500       -0.07616768168092
C           -0.20230711859477        1.04975224765944       -0.57739363582517
C            1.12478284321877        0.72668697164586       -0.49756305376681
C            1.55325900493589       -0.47827562900764        0.08970765166231
C            2.95829893416014       -0.82043463284158        0.17818190410492
C            3.38993969008940       -2.16294937457756        0.18070732480695
C            4.72479857268475       -2.48927007242227        0.26527886714879
C            5.68121659570350       -1.48516384146734        0.36774408323109
C            5.27384094085223       -0.15761245890357        0.36028768476396
C            3.94538953343863        0.17765163995987        0.25884346520467
S            6.51318963899293        1.12512339595588        0.45044360224409
O            5.93807028592557        2.35487346319917       -0.05304335857656
O            7.07426292755661        1.19619326460402        1.77736404604745
C            7.77331453512031        0.58888029363480       -0.70791154561220
C            8.32505682229036        1.48247009919165       -1.60867840692068
C            9.28570867665560        1.03989895097471       -2.50612377976713
C            9.67741379145093       -0.29179536318172       -2.50817345430748
C            9.11254538829837       -1.18609371180191       -1.61142643781695
C            8.16560635002653       -0.73676190354688       -0.70748357791403
S            7.41064666970676       -1.86852019786451        0.46034309009387
O            7.61206507322624       -3.21750635285987       -0.02621039374254
O            7.92640410566646       -1.59855429000144        1.78121769914436
C            0.56017683942608       -1.33756786422265        0.59543575528034
C           -0.76855674995586       -1.01985817070190        0.51779169945052
C           -3.41615973038115       -1.70242354855710       -0.71901590572395
C           -4.40255063495554       -2.65368736528721       -0.79112589557313
C           -5.64901473438532       -2.36206650661992       -0.23550227540677
H           -6.72935779998707       -3.88567655314816       -2.77399256218289
H           -7.54767871821654       -5.43173559759497       -2.51685974728795
H           -8.39789401150904       -3.91474094466662       -2.19978463038039
H           -7.64682040159469       -4.99404080416613       -0.06744987863923
H           -5.97388612657278       -4.96283271645752       -0.64366809315208
H           -9.48976236361273       -3.69092947465800        0.46684700781646
H          -10.90324803334562       -2.02706710161402        1.59502904707544
H          -10.02964724661671        0.17800184773175        2.20236053189627
H           -7.68498244606648        0.79035056609444        1.70048084411742
H           -5.06727655948222        0.80018784356742        0.90862112155362
H           -2.52240479650604        4.56914132978555       -0.64557578763746
H           -1.23415276051863        6.15427041880742        0.70582573792030
H           -0.13210362105863        5.41089717118996        2.78819676414315
H           -0.35136668691147        3.06058914612037        3.51737788972446
H           -1.66850492757657        1.47397037182837        2.19695846200464
H           -3.79495675196932        0.84980570177942       -2.42213106310446
H           -5.76275326240460        1.48493574366069       -3.73594986328930
H           -7.16748215145324        3.39298522715867       -3.03440450668013
H           -6.58939406289872        4.65053421961909       -0.98803230968667
H           -4.64905851997778        4.00015392616833        0.35758803469955
H           -0.49796906245979        1.96412137639013       -1.06965513372019
H            1.85610887081994        1.39364613189473       -0.92852015699971
H            2.66272501608996       -2.95322806313921        0.08400905867491
H            5.06391192397614       -3.51316952523564        0.24592551000934
H            3.69010706451910        1.22535815639595        0.26530723097514
H            7.98369306398641        2.50559922948668       -1.59071413560380
H            9.72362831153146        1.73423992955934       -3.20613819562594
H           10.42027326903155       -0.63656737840440       -3.21049886319797
H            9.38127243452257       -2.23067472934539       -1.59446963335646
H            0.85408024380128       -2.24445692765398        1.10170487449609
H           -1.49850334421291       -1.67282268758061        0.97313304101009
H           -2.46269418613073       -1.89757337953451       -1.18606604278124
H           -4.21343301077518       -3.59480288734996       -1.28439264130217
