86
 energy: -140.986528552815 gnorm: 0.000071281727 xtb: 6.7.1 (edcfbbe)
C           -6.81465757267907       -5.30384259887974        0.18271995839562
C           -7.11760144789809       -4.26974025001046       -0.90159832328995
N           -6.94028760680261       -2.92446555286422       -0.41876647434932
C           -7.90293487397660       -2.17346016678158        0.22280986279117
C           -9.22756466217245       -2.48029742436151        0.50027324849117
C           -9.98901707172439       -1.52602368201828        1.15064125957629
C           -9.45369495767868       -0.29407069692065        1.51835109440027
C           -8.13338460679246        0.01669124100247        1.24930707474791
C           -7.35006152590965       -0.92717195526474        0.60190838825836
C           -5.97611010073203       -0.94949606157030        0.17479462703727
C           -4.94503158415593       -0.04181406792743        0.26792688257839
C           -3.67881946259449       -0.37093605054704       -0.25071185220362
C           -2.60461228863620        0.57775363946459       -0.19171707020295
C           -2.93292116939207        1.99857261180490       -0.17043961576326
C           -2.22841213744610        2.87220852445137        0.72187789016447
C           -2.03208450033576        4.23423986688810        0.41710368313678
C           -1.32544722565224        5.05594247055702        1.26703565181490
C           -0.79412999172243        4.55820420229672        2.44980297751282
C           -0.97260532622543        3.21766467740408        2.76770874828819
C           -1.67021258134139        2.38616407153420        1.92118407418021
C           -3.96389676775441        2.48027415203392       -1.04296099856039
C           -4.25016608831651        1.82050880667314       -2.25500968632699
C           -5.27183755931813        2.24881733862681       -3.07248139446399
C           -6.05119386837508        3.34061623007298       -2.71299027185089
C           -5.79186531734200        4.00089207744938       -1.51858408271347
C           -4.76708669015857        3.58603840513624       -0.69769833366836
C           -1.23967335009298        0.17939708106230       -0.14911664495694
C           -0.20872347087289        1.04714699291536       -0.58257829779317
C            1.11035924887799        0.69623043850786       -0.49052929101863
C            1.50317670663772       -0.54688600490327        0.03855110395732
C            2.90054842079661       -0.91744174838697        0.14103128473485
C            3.31307082014467       -2.26308613065029        0.06487836407371
C            4.64086937291143       -2.61491577168418        0.16490908966677
C            5.60660793747460       -1.63497126628899        0.36469327011991
C            5.21761886322376       -0.30424431197636        0.43600574100633
C            3.89747360132185        0.05784759132936        0.31767241994947
S            6.46879204236985        0.95017925925405        0.66267940877717
O            5.92952436492144        2.22134840183798        0.22798674601524
O            6.97810357968148        0.91655023579084        2.01162330719121
C            7.76919323601801        0.47965087313359       -0.47945597493286
C            8.37313502498830        1.42890958513776       -1.28471517630639
C            9.37160295574708        1.03954215106655       -2.16543289927151
C            9.75047406224336       -0.29335853035693       -2.24499439492045
C            9.13296243947952       -1.24288042675580       -1.44469654715866
C            8.14629889522225       -0.84779312627071       -0.55816988794788
S            7.32769227443381       -2.05207711476104        0.48904217185290
O            7.52805609004408       -3.36326666633392       -0.09151189570874
O            7.79714137219892       -1.89183978473023        1.84447014654089
C            0.48468764197629       -1.41288530772193        0.47653070804335
C           -0.83641914023410       -1.06504607447979        0.39129320531869
C           -3.51008958115364       -1.63276742283267       -0.87490964960215
C           -4.53125518444135       -2.54350698543711       -0.98135804358624
C           -5.77646034386699       -2.21309083869266       -0.44554864196896
H           -7.47344710097274       -5.16185953652959        1.03631027830599
H           -6.96146309293596       -6.30635943439567       -0.20977935251705
H           -5.78575442945661       -5.20709697556062        0.52140614716953
H           -6.45522490655044       -4.42000619685271       -1.75772540421698
H           -8.14912064803831       -4.37877381215008       -1.24594896297380
H           -9.66051941534674       -3.42948853907225        0.22414313675011
H          -11.02280210685826       -1.74118153540317        1.37864988674600
H          -10.08173241078622        0.42536704884600        2.02287513684068
H           -7.71794529913738        0.97142337096524        1.53493428020309
H           -5.09484654360852        0.90377406730017        0.76497159341651
H           -2.40176840120569        4.62332674218364       -0.52036833334593
H           -1.17515648125706        6.09382631181589        1.00546304948524
H           -0.24086517783333        5.20606357213494        3.11333192537518
H           -0.56202585475814        2.82438385430154        3.68679789742844
H           -1.81940577935605        1.35076847095894        2.18887544309504
H           -3.63435940713677        0.98644394046726       -2.55646526483535
H           -5.46516094697337        1.73351588049704       -4.00252779788356
H           -6.85486314675749        3.67139361763181       -3.35384942027833
H           -6.40435733042569        4.84179618896072       -1.22540459809199
H           -4.60391557339957        4.07997549327446        0.24914999021213
H           -0.47722587240328        1.99214505067442       -1.03058843431790
H            1.86345097685213        1.37157380264811       -0.86771831232315
H            2.57772642945066       -3.03318249321096       -0.10580454243256
H            4.96644463740635       -3.64028444744947        0.08523807376787
H            3.65550820689576        1.10636907924482        0.38827389631042
H            8.04201487407879        2.45264074952819       -1.20745649847371
H            9.85004526947798        1.77702067824785       -2.79086147057645
H           10.52488563584792       -0.59596263732847       -2.93255951263122
H            9.39119316258727       -2.28923154150857       -1.49019475483032
H            0.75236538338003       -2.35095093566349        0.93889105099516
H           -1.58670720485688       -1.72520942168977        0.80051457162835
H           -2.55607476040104       -1.85825063907798       -1.32672817635174
H           -4.36685920981550       -3.48677158662538       -1.47964257269087
