140
 energy: -231.608242988536 gnorm: 0.000069815845 xtb: 6.7.1 (edcfbbe)
F            2.96099794923544       -2.51040442310772       -2.28991689646673
C            2.60973219613352       -3.14011350645005       -1.14509691857199
C            2.55640212763187       -4.51610240086696       -1.12365348153286
C            2.20491664707272       -5.16532125593034        0.05355944773315
C            1.90906995623112       -4.42709940156121        1.19337466564087
C            1.97061076940985       -3.05226815108945        1.14102391910935
F            1.68419278288453       -2.33732486769628        2.25463338882975
C            2.31812160081704       -2.35532568191814       -0.02290675456766
N            2.38974564541889       -0.94089330794560       -0.07346368927149
C            1.21485762445493       -0.21453878023491       -0.07892427257793
C           -0.00017398519608       -0.88962036910420        0.00224384536619
C           -1.21459572851200       -0.21288707363511        0.07876473855076
C           -1.22451304610255        1.20612067267630        0.19377309756574
C            0.00089827053856        1.84376354411084       -0.00817866042102
C            1.22577866553332        1.20353460341643       -0.20461009098611
B            2.56634882554696        1.89704121590306       -0.50639518451220
C            2.87074246163831        3.34730692661129       -0.93238863866724
C            1.91835114358097        4.27880043019640       -1.37035800429664
C            2.24158160306221        5.58025228805245       -1.69017457417746
C            3.56019147371819        6.00531029164680       -1.58635159832891
C            4.54053605621366        5.11206523647020       -1.20762730598126
C            4.22103131360468        3.78214809037265       -0.90492455110569
N            5.24892494459416        2.90951082586550       -0.58923665441535
C            6.57732451031049        3.42827019530178       -0.50079814566393
C            7.06442268484729        3.85094810888004        0.72897540162839
C            8.35758763745598        4.33471512454127        0.82659717124439
C            9.16394053322457        4.39641292211984       -0.29772626478213
C            8.67578861728382        3.97712581187130       -1.52483469791843
C            7.38411013044889        3.49175843571691       -1.63038805869392
C            5.08759390762440        1.55647538323820       -0.38106256557906
C            6.20856654453749        0.74407947717698       -0.21729242038490
C            6.05359781189876       -0.61994345263598        0.02202557756463
N            7.17699722819118       -1.43422981207193        0.20259816431977
C            7.18891275943809       -2.73039297849294       -0.32214456434662
C            6.57185766431179       -3.00797517383331       -1.54322528239323
C            6.58306682913798       -4.29156647719681       -2.05275045658964
C            7.20641974070602       -5.31799867407278       -1.36096184857507
C            7.82284161318860       -5.04788175041803       -0.14940189977852
C            7.81495118300317       -3.76824365327852        0.37048349858755
C            8.29498661757353       -0.93657250139104        0.88155431163840
C            8.13449837489193       -0.10525513802153        1.99105500697716
C            9.23921319021231        0.39559560442204        2.65142451573265
C           10.51810401295856        0.07368953431348        2.22539878349814
C           10.68336318111737       -0.75589654256533        1.12761054548771
C            9.58480960349054       -1.25566176961386        0.45548043496002
C            4.77740112400416       -1.17474497400085        0.08700966816966
C            3.65593340893957       -0.37348941065988       -0.11492767110044
C            3.78497470826068        1.01273406193102       -0.34056134671846
B           -2.56417122937961        1.90289858924563        0.49227976982477
C           -2.86704326311459        3.35678561131984        0.90719987608276
C           -1.91321090691598        4.29199781685113        1.33399686179473
C           -2.23531334967515        5.59601211399624        1.64438931672454
C           -3.55431644460835        6.02016663709297        1.54213430888410
C           -4.53592683946787        5.12376145418637        1.17433715214992
C           -4.21741978646743        3.79150967386222        0.88095493564963
N           -5.24652276118833        2.91654590071051        0.57583975023342
C           -6.57516900791928        3.43488618189670        0.48857803458347
C           -7.06604360300902        3.85103089654878       -0.74192815917952
C           -8.35929714679652        4.33488150045110       -0.83799750519736
C           -9.16211486433076        4.40277034141061        0.28849770140150
C           -8.67027707993712        3.98974980091795        1.51625655871635
C           -7.37837055524998        3.50468295964169        1.62035074088464
C           -5.08604213134427        1.56203580331409        0.37697686676938
C           -6.20776585051495        0.74874944413024        0.22278546377399
C           -6.05390652609652       -0.61681667993647       -0.00825971067236
N           -7.17768693586273       -1.43248547387682       -0.17931476391958
C           -7.18570433802781       -2.72651136629261        0.35103859269427
C           -6.56302701453355       -2.99826706971659        1.57057708654374
C           -6.57005782493904       -4.27981403014644        2.08528231327707
C           -7.19491951783388       -5.30993941498535        1.40038732325036
C           -7.81712791959565       -5.04558253205461        0.19052543854072
C           -7.81334428143234       -3.76804189567213       -0.33456145565541
C           -8.29985201280907       -0.93900020554019       -0.85442339123764
C           -9.58692295518452       -1.25817964554872       -0.42014521727687
C          -10.68982242155280       -0.76268151596376       -1.08829079418195
C          -10.53167847559401        0.06284539985666       -2.19017637293865
C           -9.25556268530303        0.38473810095419       -2.62445078463521
C           -8.14655811018708       -0.11202782386733       -1.96818695880378
C           -4.77793839911287       -1.17203931653995       -0.07419264217117
C           -3.65569656777710       -0.36994200704394        0.11987191281893
C           -3.78359099315707        1.01782323910267        0.33636520642667
N           -2.38996722020422       -0.93852011607972        0.07961867561145
C           -2.31960917469444       -2.35334553333047        0.03922223905330
C           -2.61295468441542       -3.13003203575523        1.16670459109649
F           -2.96415152161596       -2.49214596964625        2.30701007345544
C           -2.56154240168621       -4.50616614004032        1.15501137352060
C           -2.21002275871780       -5.16427430370817       -0.01724971327724
C           -1.91231761784131       -4.43439971164573       -1.16195247995396
C           -1.97219491572744       -3.05918276724632       -1.11943691157387
F           -1.68405776840852       -2.35287044862730       -2.23810127492324
H            2.78708019786400       -5.06649946311895       -2.02095604500520
H            2.16042007379918       -6.24064421634445        0.08253474215457
H            1.63468612451006       -4.90630608528958        2.11914741642717
H           -0.00064644787831       -1.96851603187239        0.00631685605375
H            0.00144449347492        2.91903626224371       -0.01257732570538
H            0.89455836419888        3.95735999088933       -1.47716666784886
H            1.47372250844518        6.26771878721423       -2.01542067874104
H            3.82629897380250        7.02706961692170       -1.81557760954464
H            5.56529971393420        5.44741383744779       -1.15705278842785
H            6.42623477777619        3.79635563502168        1.59856373423592
H            8.73580168226349        4.66115788581367        1.78367141521966
H           10.17279167068233        4.77245534052054       -0.21836189952199
H            9.30218511932259        4.02547266294671       -2.40308421257208
H            6.99266603613009        3.15986932176118       -2.58089669635327
H            7.20498592436571        1.15222382802299       -0.26990178302407
H            6.08827642290158       -2.21101757153915       -2.08926086430210
H            6.10765643993521       -4.48776749680684       -3.00276030787844
H            7.21364298240910       -6.31954548388622       -1.76370203278991
H            8.30741592474267       -5.84183185162794        0.40003899712529
H            8.28868552512165       -3.56229177099571        1.31927197842785
H            7.13823551275313        0.13761994196139        2.33049673336147
H            9.09982986351442        1.03593596418210        3.51016036366703
H           11.37926063788830        0.46501554084480        2.74555759972667
H           11.67615378647520       -1.00929586466914        0.78527736998506
H            9.71638440430527       -1.89251752429057       -0.40718382489842
H            4.68098121441723       -2.22740986108185        0.30606606731134
H           -0.88896399234030        3.97172631300306        1.43965350736198
H           -1.46624151760496        6.28607613016623        1.96116022254416
H           -3.81970523133205        7.04367275914677        1.76426489013785
H           -5.56092191384930        5.45858026388447        1.12506992280234
H           -6.43066714209102        3.79159666766457       -1.61326336978773
H           -8.74033734691593        4.65658922790948       -1.79554737714561
H          -10.17106867253918        4.77878977810723        0.21030716651330
H           -9.29391991070996        4.04287787222753        2.39618528812519
H           -6.98397000775755        3.17790100844583        2.57140740868610
H           -7.20388933790139        1.15747573126751        0.27633839262075
H           -6.07819453404634       -2.19852070436258        2.11136712743845
H           -6.09035134112625       -4.47143855050471        3.03405361985064
H           -7.19885642232463       -6.30985597931090        1.80718845733027
H           -8.30306851391370       -5.84239346634876       -0.35353414681676
H           -8.29155989713752       -3.56662386834040       -1.28206827645410
H           -9.71292414735214       -1.89176246400238        0.44575163870457
H          -11.68037273482520       -1.01612682079153       -0.73956073216242
H          -11.39621127025349        0.45099132384027       -2.70710693428400
H           -9.12175893687452        1.02180283628109       -3.48650462024759
H           -7.15253448406311        0.13087146790590       -2.31411502111332
H           -4.68232075037968       -2.22595772122016       -0.28745935417004
H           -2.79373418776685       -5.04980199249516        2.05602035978282
H           -2.16693541243332       -6.23981391442574       -0.03864780279479
H           -1.63783003628273       -4.92041733690623       -2.08411346947276
