140
 energy: -231.690358983957 gnorm: 0.000047247343 xtb: 6.7.1 (edcfbbe)
F            2.86877142656568       -2.50052380264442       -2.37658980650103
C            2.56377784147078       -3.13553882377130       -1.22686586767602
C            2.50762688221759       -4.51662494299311       -1.21677166212843
C            2.20292152616734       -5.17123767355497       -0.03587807164071
C            1.95489432398789       -4.44981101412450        1.11954891072248
C            2.01961658962473       -3.06991307194216        1.07857597518299
F            1.77757517891921       -2.37018840242465        2.20699481958866
C            2.32139070709975       -2.36791350829067       -0.08848305437266
N            2.39329419983512       -0.95355732691387       -0.12597118665750
C            1.21169549960127       -0.22435951929465       -0.10370086968107
C            0.00009074810252       -0.90070294806001       -0.00192346966990
C           -1.21098631883301       -0.22265391205188        0.09540456776721
C           -1.22051739907964        1.18906471555840        0.19212898990284
C            0.00097526192906        1.82498704591440       -0.01239726049103
C            1.22207856249184        1.18656559805799       -0.21096904422823
B            2.56434587616166        1.88830584274148       -0.50007809712202
C            2.86802021422647        3.34636976160390       -0.90850516091364
C            1.91351792699611        4.27364011027007       -1.34705976181986
C            2.22899110672535        5.57896970778482       -1.65135317677351
C            3.54423398038993        6.00841125311843       -1.52301078196894
C            4.52386993154731        5.12145242348461       -1.14059562906898
C            4.21193486285106        3.78365687862256       -0.85707354387091
N            5.24200445087761        2.91538543475435       -0.53935639338486
C            6.56572099692000        3.44090613755208       -0.42198026308083
C            7.03401151052647        3.84540706529470        0.82094240130014
C            8.32212242416338        4.33684187235204        0.94463672394167
C            9.14295167533459        4.42390332311263       -0.16741351293170
C            8.67433843981875        4.02254016520506       -1.40803478095217
C            7.38766068754958        3.53032165946270       -1.53891896926048
C            5.08460609102479        1.55801748709329       -0.36095148458794
C            6.20545638594929        0.74459530643897       -0.20310610355712
C            6.05104429223611       -0.61964784512769        0.00154633739438
N            7.17790619133422       -1.43176612908861        0.17528163521119
C            7.20189654439690       -2.72262933211791       -0.36377162695248
C            6.60793195347293       -2.98876555928459       -1.59809845667644
C            6.63391277990784       -4.26643989042149       -2.12273141564494
C            7.25150739635011       -5.29775462872088       -1.43365568510778
C            7.84627133170250       -5.03879167559669       -0.20923970390695
C            7.82161584102100       -3.76537617037012        0.32601866584401
C            8.29117346786567       -0.93995934052186        0.86785384684563
C            8.12332216119002       -0.13384128128045        1.99392985603420
C            9.22324764466882        0.35940327872745        2.66830544630916
C           10.50502007877118        0.05156131373154        2.24147160517337
C           10.67784420064823       -0.75526653785498        1.12850554248864
C            9.58365036065477       -1.24500681639171        0.44142721320228
C            4.77931128422815       -1.18592128492406        0.04040232041050
C            3.65903585790962       -0.38552203081831       -0.14837540266034
C            3.78715778585159        1.00465128339709       -0.34173349867443
B           -2.56165635775104        1.89365310344431        0.48022097443319
C           -2.86335183929037        3.35528486873147        0.87777516265652
C           -1.90653725621379        4.28704070760327        1.30161264081095
C           -2.22054231793139        5.59489411546267        1.59638012689208
C           -3.53694777456506        6.02246230626364        1.47397744894367
C           -4.51861658297442        5.13157940894990        1.10624940947605
C           -4.20777055809264        3.79167525340060        0.83153831505348
N           -5.23957837662341        2.92054444976440        0.52779376435673
C           -6.56399054228703        3.44504470436468        0.41376677448542
C           -7.03786385933957        3.84312964145277       -0.82911483935209
C           -8.32658872794907        4.33373315782748       -0.94957730625223
C           -9.14258434173843        4.42598459845658        0.16561470502884
C           -8.66842316622911        4.03093723750323        1.40615292344982
C           -7.38095778603843        3.53993365081635        1.53388803836616
C           -5.08281747465671        1.56201702430829        0.35808882497066
C           -6.20457516972996        0.74742880141875        0.21294558548353
C           -6.05125902676476       -0.61793157830141        0.01525714460220
N           -7.17866617956819       -1.43182509438520       -0.14552577775362
C           -7.19680923524829       -2.72033249547810        0.39961445072845
C           -6.59187846445886       -2.98070103795899        1.62986115962877
C           -6.61222240368747       -4.25611585501299        2.16018857756509
C           -7.23478048674933       -5.29095032512609        1.48093012458089
C           -7.84046427398281       -5.03773101078798        0.26068236731114
C           -7.82163174645118       -3.76658205794850       -0.28019042107087
C           -8.29896428705809       -0.94389759271869       -0.82952379444924
C           -9.58701927570099       -1.24855744032696       -0.38964141528186
C          -10.68823759166275       -0.76268112096744       -1.06817989141526
C          -10.52686661444905        0.04005804520609       -2.18580166139443
C           -9.24954189341791        0.34741980976736       -2.62608466900608
C           -8.14270682787659       -0.14216777794064       -1.96039054913901
C           -4.77958698748549       -1.18390504730435       -0.02906501001043
C           -3.65832942408674       -0.38257992406406        0.14952398314207
C           -3.78531918126809        1.00880836293226        0.33502503313546
N           -2.39286450111494       -0.95116161586034        0.12447687294937
C           -2.32181411306131       -2.36560845374781        0.09093837754338
C           -2.56616743352818       -3.13063695780671        1.23070872767423
F           -2.87161917630996       -2.49301230027390        2.37887218511676
C           -2.51159042222551       -4.51178506310090        1.22352599281413
C           -2.20633113931032       -5.16928125598896        0.04436716351886
C           -1.95616297028121       -4.45053768017402       -1.11225696556442
C           -2.01949744517351       -3.07050130380323       -1.07425591561448
F           -1.77547440436848       -2.37348415882145       -2.20394234485068
H            2.70281668297854       -5.05731235333737       -2.12842244959380
H            2.15753684494784       -6.24761050689761       -0.01569451145587
H            1.71642622924320       -4.93672934461807        2.05126458697042
H           -0.00032423875926       -1.98025794092562        0.00240866763817
H            0.00153002724150        2.90072851565422       -0.01715559839983
H            0.89363106843278        3.94486838342573       -1.47068495036974
H            1.46249127728260        6.26429598862695       -1.98355333781337
H            3.80676669189624        7.03447500243371       -1.73906597935976
H            5.54571157730508        5.46311677122739       -1.07140373881736
H            6.38514230891645        3.77056489388068        1.68121343637777
H            8.68551039781241        4.64963814903772        1.91213870671912
H           10.14795498127064        4.80574780674374       -0.06795694833083
H            9.31242885884209        4.09057580447358       -2.27668907554996
H            7.01137520534656        3.21260951985744       -2.50049542606339
H            7.20082963959062        1.15726534037592       -0.24074506987585
H            6.12902010637634       -2.18736930701060       -2.14181829235961
H            6.17514468974166       -4.45369148944651       -3.08287864090751
H            7.27170285937023       -6.29423287028333       -1.84857209605484
H            8.32754691266310       -5.83616089163422        0.33837425024129
H            8.28044412282775       -3.56801400009226        1.28406562361444
H            7.12474080406345        0.09964139115533        2.33333298858775
H            9.07746918318810        0.98241640655965        3.53880140135981
H           11.36246812345476        0.43614739118013        2.77290130801840
H           11.67307078170142       -0.99819236463311        0.78525072141248
H            9.72181070266483       -1.86460854246530       -0.43287970420242
H            4.69024312091242       -2.24487143755659        0.23012839600640
H           -0.88564681075731        3.96017407531605        1.42146130227670
H           -1.45201868421239        6.28345443559646        1.91701820299281
H           -3.79861621130448        7.05016720024855        1.68314225597474
H           -5.54120162328796        5.47191481405213        1.04166447529424
H           -6.39270649262487        3.76409825817983       -1.69182290123001
H           -8.69427476932706        4.64173952903547       -1.91698269814244
H          -10.14815334501514        4.80698264141337        0.06864733110043
H           -9.30273279062075        4.10310319403415        2.27723561261291
H           -7.00028822226001        3.22734988058737        2.49541958644609
H           -7.19972157347404        1.16018855878439        0.25480318376005
H           -6.10880539109841       -2.17676419514144        2.16605662745526
H           -6.14513243024069       -4.43874379722751        3.11720191626990
H           -7.25040175522415       -6.28565594323691        1.90026118361576
H           -8.32584893094831       -5.83781653693239       -0.27928125451443
H           -8.28911305636381       -3.57370797970248       -1.23496092695780
H           -9.71624863800673       -1.86478107224389        0.48840531105299
H          -11.67986946154627       -1.00533449132299       -0.71450108027836
H          -11.38976590664839        0.42180181520582       -2.71041241682006
H           -9.11274685758211        0.96720158671410       -3.50033657332313
H           -7.14768389132406        0.09093426808854       -2.31035089648534
H           -4.69157789955830       -2.24372101012240       -0.21430381432075
H           -2.70831693598332       -5.05035309482478        2.13608078417407
H           -2.16220081012549       -6.24574547906670        0.02647996169172
H           -1.71719800917882       -4.93962147441112       -2.04270374000790
