140
 energy: -231.608277281865 gnorm: 0.000061723792 xtb: 6.7.1 (edcfbbe)
F            3.05123636936454       -2.54062384569961       -2.22280522559432
C            2.66247619709334       -3.15678859347973       -1.08258589880324
C            2.61769901833666       -4.53247775982461       -1.04379435300590
C            2.22536351383387       -5.16795969135238        0.12803812738337
C            1.88173149788366       -4.41592959370539        1.24528652913872
C            1.93794430218913       -3.04163117750162        1.17663923071754
F            1.60641089389407       -2.31363373936181        2.26932982969557
C            2.32468178925801       -2.35800110802709        0.01701369531338
N            2.39148983727737       -0.94498452989183       -0.05061315821745
C            1.21485853960764       -0.22158215345745       -0.07246411686881
C           -0.00001564541029       -0.89774975521259       -0.00220504308191
C           -1.21460258573843       -0.22098824573303        0.06747668397757
C           -1.22349732772826        1.19699463501975        0.19857255967637
C            0.00048546022267        1.83669201685564       -0.00459899537159
C            1.22428067686580        1.19616370468500       -0.20598023409180
B            2.56197654000005        1.88656959197899       -0.52541882457358
C            2.86069483715465        3.32828629269051       -0.98171338541998
C            1.90253419466080        4.24874405814947       -1.43012672358835
C            2.22147363157277        5.54264242676204       -1.78311338923294
C            3.54098448554311        5.97022855290511       -1.70361131490262
C            4.52613275328756        5.08668181530706       -1.31464500604964
C            4.21080382187520        3.76420593367893       -0.97712519623062
N            5.24217875800223        2.89998024514092       -0.64926246643737
C            6.57101028781139        3.42163513460392       -0.58808660437735
C            7.06863113756661        3.88311853901859        0.62338067425179
C            8.36231425633924        4.37011821931586        0.69426180154739
C            9.15864864947373        4.39682372631369       -0.43853844730720
C            8.65986426608574        3.93917164090912       -1.64753180962700
C            7.36767104698376        3.45005994794706       -1.72624074873566
C            5.08415124832302        1.55233516510903       -0.40665922464606
C            6.20669613125739        0.74605328683631       -0.22407611360722
C            6.05406228530931       -0.61103253376633        0.05352916302535
N            7.17806784018519       -1.41866233942554        0.25659823519199
C            7.18717035255384       -2.73252235942372       -0.22208293795909
C            6.56136399762912       -3.05354277635397       -1.42803484332783
C            6.56555611449565       -4.35517392102641       -1.88939646730426
C            7.19261455258197       -5.35662539540942       -1.16502663573603
C            7.82018269164723       -5.04286543745271        0.03014720746804
C            7.81769665098109       -3.74508447728875        0.50305406236665
C            8.29903116825052       -0.89869517087433        0.91409474676905
C            8.14304807417306       -0.03659503726501        2.00040075110515
C            9.25051508363606        0.48680310895789        2.63831746107299
C           10.52751285950274        0.15732752314200        2.21243217328208
C           10.68823378597380       -0.70317192722764        1.13801207453230
C            9.58683109706094       -1.22616580325003        0.48858369523371
C            4.77878815385407       -1.16610024923016        0.13318686179578
C            3.65623371029614       -0.37381782231303       -0.09518381074979
C            3.78265540838724        1.00726314284550       -0.35080840354529
B           -2.56056079919681        1.88829242624072        0.51873324660817
C           -2.85819081758125        3.33082171548663        0.97332387569223
C           -1.89897770784569        4.25219941541979        1.41758438081727
C           -2.21714073439859        5.54658511869508        1.76948211631683
C           -3.53695403732968        5.97379716753649        1.69320477462946
C           -4.52301495363787        5.08945484966488        1.30841587847560
C           -4.20837405326425        3.76656642280211        0.97182425962207
N           -5.24054454727268        2.90177662187658        0.64805302293977
C           -6.56965150820489        3.42313150827828        0.59039665741733
C           -7.07071322857519        3.88454897581484       -0.61967472994652
C           -8.36467193669715        4.37133753383695       -0.68692545365042
C           -9.15789425620552        4.39780585672458        0.44805784947842
C           -8.65566736571329        3.94023123942862        1.65565939711489
C           -7.36317296984574        3.45136778971894        1.73075403331208
C           -5.08307496124239        1.55384281921499        0.40684681829973
C           -6.20611746410247        0.74725456051036        0.22863957995571
C           -6.05425378049426       -0.61020579352714       -0.04747945323868
N           -7.17871402873145       -1.41836003895301       -0.24552596003461
C           -7.18570725769678       -2.73172962688702        0.23462063912115
C           -6.55526013255816       -3.05146492958386        1.43849002135107
C           -6.55747152630748       -4.35265450934879        1.90110879942171
C           -7.18723476452349       -5.35488850162256        1.18017340240631
C           -7.81943831385387       -5.04239228226313       -0.01288347957622
C           -7.81887811466962       -3.74508834516374       -0.48709074485648
C           -8.30280309700733       -0.89935771636567       -0.89846968885800
C           -9.58850648645766       -1.22680505107329       -0.46663689385626
C          -10.69310409315053       -0.70507652356670       -1.11162283648038
C          -10.53765169156669        0.15414521221085       -2.18784321742182
C           -9.26275488054622        0.48367360970670       -2.61994788186936
C           -8.15213100492873       -0.03848413217680       -1.98649229483914
C           -4.77914752764784       -1.16520925494093       -0.13032393739928
C           -3.65598335467760       -0.37268184782781        0.09425163869228
C           -3.78169625925972        1.00875227006499        0.34831674850939
N           -2.39144174025789       -0.94412051906776        0.04774710481102
C           -2.32505949758424       -2.35721117022948       -0.01858749029158
C           -2.66203739710462       -3.15500478453389        1.08203660625583
F           -3.04925722979425       -2.53774784310995        2.22219642981889
C           -2.61798912837033       -4.53072202106663        1.04429931136330
C           -2.22712233540618       -5.16737166404823       -0.12740198133731
C           -1.88422376975465       -4.41637513729522       -1.24558779937398
C           -1.93977524810557       -3.04201745705126       -1.17802476940498
F           -1.60908123908353       -2.31508807632399       -2.27168512239114
H            2.88620651165260       -5.09340688109635       -1.92382494071567
H            2.18658200214815       -6.24303124799280        0.17033384804643
H            1.57531708314667       -4.88415314655626        2.16666753471932
H           -0.00025902527667       -1.97664918950673       -0.00139523602898
H            0.00069127279149        2.91231646789939       -0.00594108902403
H            0.87793831093485        3.92369868219000       -1.51747369448813
H            1.44989386610920        6.22234970154341       -2.11576070531279
H            3.80401089106331        6.98637189015172       -1.95983522784081
H            5.55111869558388        5.42371103250017       -1.28323494060189
H            6.43833981693512        3.85573910027185        1.49997457384851
H            8.74854461389693        4.72721939153820        1.63704418093508
H           10.16787554997781        4.77568179430433       -0.37995585205982
H            9.27817980055304        3.96064556636975       -2.53254938318406
H            6.96805721908770        3.08830737011168       -2.66234008535911
H            7.20237363410435        1.15418714953527       -0.28886105724010
H            6.07578729097253       -2.27613927831779       -1.99983263305177
H            6.08192715960720       -4.58525151346944       -2.82754260554298
H            7.19463643932047       -6.37255823836831       -1.53006035984807
H            8.30853061525444       -5.81678685118752        0.60424545123118
H            8.29887688205865       -3.50512713285274        1.44005290032309
H            7.14820517289051        0.21248387947311        2.33955098542601
H            9.11483508391546        1.15163829622267        3.47880880401156
H           11.39088289672867        0.56685275310926        2.71462108596801
H           11.67955338287443       -0.96290411361059        0.79620110821589
H            9.71438526879146       -1.88798063149792       -0.35568431569751
H            4.68382855636790       -2.21186056964434        0.38363186492191
H           -0.87410314167895        3.92752249584595        1.50279953117243
H           -1.44469696835094        6.22691714799326        2.09883448919530
H           -3.79944714212695        6.99025668778926        1.94871972052736
H           -5.54816117097390        5.42621198386998        1.27948681127356
H           -6.44293238543293        3.85727711328817       -1.49807775399559
H           -8.75357707422584        4.72835522081540       -1.62863629746004
H          -10.16735726983607        4.77645902165035        0.39227899523311
H           -9.27156170837921        3.96143928022601        2.54236373544886
H           -6.96085860538403        3.08967936289943        2.66572060126582
H           -7.20161173845419        1.15541779501988        0.29590955556520
H           -6.06758132790250       -2.27346130761298        2.00767925721515
H           -6.07011729932864       -4.58176802653997        2.83755689316731
H           -7.18770768188107       -6.37046111060199        1.54620993359672
H           -8.30996742150118       -5.81692102278011       -0.58429597855754
H           -8.30368017129731       -3.50608897880339       -1.42246281343891
H           -9.71186038862633       -1.88762012533373        0.37904009990827
H          -11.68273206797686       -0.96485528858331       -0.76497595342905
H          -11.40351123607555        0.56267761293900       -2.68654892198490
H           -9.13122988681926        1.14758464794948       -3.46183088675114
H           -7.15896428487295        0.21065511154737       -2.33048750649369
H           -4.68484632133202       -2.21123337312458       -0.37990117241393
H           -2.88589989166571       -5.09081473947075        1.92504024289986
H           -2.18891496880128       -6.24248819041773       -0.16888234311343
H           -1.57896039072566       -4.88548811693504       -2.16689553202142
