  140
       -231.60786285
 F          3.1147688439       -2.2291999321       -2.4558255348
 C          2.6750697954       -2.9712279093       -1.4241725371
 C          2.5989406957       -4.3426711039       -1.5727946260
 C          2.1333516760       -5.1124248384       -0.5208961505
 C          1.7629465719       -4.5123533636        0.6697464219
 C          1.8660885619       -3.1394632828        0.7960098121
 F          1.5196488040       -2.5711597666        1.9674469884
 C          2.3098536653       -2.3211441193       -0.2438720875
 N          2.3856971493       -0.9160824279       -0.1393212277
 C          1.2098772917       -0.1773259919       -0.1179506799
 C         -0.0025080931       -0.8489320890       -0.0348844955
 C         -1.2127832356       -0.1732443348        0.0515130254
 C         -1.2264163263        1.2393175678        0.1368841849
 C          0.0005261888        1.8737921365       -0.0427049870
 C          1.2262833008        1.2346387532       -0.2120423243
 B          2.5772931637        1.9322425706       -0.4697074365
 C          2.9039936243        3.3965579749       -0.8371043812
 C          1.9644073757        4.3481908159       -1.2534437411
 C          2.2924247057        5.6644032265       -1.4880792616
 C          3.6036418095        6.0824858925       -1.2982047915
 C          4.5708042325        5.1732732443       -0.9380073151
 C          4.2497640465        3.8223348559       -0.7421273296
 N          5.2684701678        2.9327712184       -0.4548510203
 C          6.5952962355        3.4219713422       -0.2803233880
 C          7.1089380702        3.5511111043        1.0039946596
 C          8.4117779855        3.9779983357        1.1867721950
 C          9.2036536418        4.2805916038        0.0918193678
 C          8.6903520890        4.1583733786       -1.1888983517
 C          7.3895884380        3.7268768651       -1.3788286562
 C          5.0937560605        1.5724372297       -0.3228573416
 C          6.2060646624        0.7398461964       -0.2173969237
 C          6.0373400343       -0.6200011177        0.0050645632
 N          7.1555269021       -1.4445261630        0.1652851142
 C          7.1200244313       -2.7648008997       -0.2895859973
 C          6.4343428330       -3.0958097647       -1.4596301851
 C          6.3802347649       -4.4070325713       -1.8881627025
 C          7.0144112545       -5.4087481251       -1.1712309827
 C          7.7080789086       -5.0845583206       -0.0168321929
 C          7.7599604874       -3.7772438700        0.4260787317
 C          8.3104622803       -0.9384495122        0.7698275965
 C          8.2181578927       -0.0507482720        1.8426079600
 C          9.3600116781        0.4696183936        2.4177951527
 C         10.6113591488        0.1073659840        1.9464036125
 C         10.7101854801       -0.7842677121        0.8911770584
 C          9.5729664920       -1.3021728643        0.3021746971
 C          4.7588351697       -1.1652580466        0.0757106018
 C          3.6513260721       -0.3538109476       -0.1347103467
 C          3.7908038288        1.0362534601       -0.3095498787
 B         -2.5736899887        1.9405581365        0.4064744761
 C         -2.8934806419        3.4090710811        0.7641798330
 C         -1.9458410264        4.3680087634        1.1440871576
 C         -2.2694664358        5.6875065792        1.3657539128
 C         -3.5853367045        6.1016009236        1.2016384860
 C         -4.5598833625        5.1856829013        0.8805759087
 C         -4.2417258060        3.8323517508        0.6964157853
 N         -5.2666532473        2.9384705601        0.4481219736
 C         -6.5992512709        3.4253813962        0.3148127612
 C         -7.1523729879        3.5585921592       -0.9524498535
 C         -8.4606383679        3.9849995724       -1.0931541894
 C         -9.2184170469        4.2826437813        0.0269584620
 C         -8.6657988217        4.1560272701        1.2907587408
 C         -7.3593341514        3.7253805161        1.4385883858
 C         -5.0935434221        1.5777167998        0.3192723126
 C         -6.2076215384        0.7435411914        0.2444083171
 C         -6.0426121690       -0.6165377820        0.0215314398
 N         -7.1607567831       -1.4461924437       -0.1096216426
 C         -7.1037412847       -2.7668501134        0.3433414308
 C         -6.3912452293       -3.0928299531        1.4984483670
 C         -6.3116349982       -4.4048027053        1.9208550100
 C         -6.9463997129       -5.4121598865        1.2126899336
 C         -7.6682340595       -5.0928714275        0.0742144590
 C         -7.7461604513       -3.7848421033       -0.3622887008
 C         -8.3345272369       -0.9489923836       -0.6839964284
 C         -9.5819633102       -1.3281813168       -0.1890560978
 C        -10.7379440208       -0.8215964969       -0.7508078481
 C        -10.6730554501        0.0741245686       -1.8051363000
 C         -9.4368080742        0.4522215943       -2.3031914652
 C         -8.2765077439       -0.0569147463       -1.7556749703
 C         -4.7651930114       -1.1599461254       -0.0787780363
 C         -3.6539642659       -0.3475209463        0.1051021738
 C         -3.7903275929        1.0433095450        0.2777533050
 N         -2.3890112533       -0.9101051951        0.0865410225
 C         -2.3122936780       -2.3161812663        0.1799002371
 C         -2.6482754120       -2.9762535495        1.3629859885
 F         -3.0609015323       -2.2436721939        2.4121192956
 C         -2.5695549328       -4.3492867884        1.4967017763
 C         -2.1323486009       -5.1095987765        0.4261497496
 C         -1.7909397714       -4.4989373755       -0.7678784015
 C         -1.8947467882       -3.1248942398       -0.8781493862
 F         -1.5737672355       -2.5441635310       -2.0507282395
 H          2.8929885627       -4.7880046249       -2.5091252308
 H          2.0624046388       -6.1826303078       -0.6277201205
 H          1.4037745886       -5.0904566879        1.5058496329
 H         -0.0047227963       -1.9254631006       -0.0346846524
 H          0.0022192337        2.9482479824       -0.0497742973
 H          0.9469302205        4.0306609180       -1.4153628550
 H          1.5378851457        6.3684437929       -1.8069571699
 H          3.8729011919        7.1180777147       -1.4479002861
 H          5.5891861614        5.5088604067       -0.8134663373
 H          6.4823155313        3.3075787509        1.8492364000
 H          8.8093065614        4.0748472846        2.1857814672
 H         10.2209429976        4.6112968518        0.2361128357
 H          9.3062706944        4.3937337270       -2.0438928516
 H          6.9812139047        3.6197337637       -2.3730286787
 H          7.2047683988        1.1355339710       -0.2997144950
 H          5.9469390406       -2.3180138790       -2.0272080226
 H          5.8486232893       -4.6453691817       -2.7978461403
 H          6.9724481614       -6.4322341130       -1.5113675190
 H          8.2064538270       -5.8576243855        0.5494372241
 H          8.2923103140       -3.5299084171        1.3328189832
 H          7.2441852690        0.2258529064        2.2171948598
 H          9.2719325905        1.1558122937        3.2472029160
 H         11.5021680764        0.5148662569        2.3993572569
 H         11.6809905054       -1.0724576423        0.5156528709
 H          9.6532120672       -1.9879254200       -0.5285662018
 H          4.6496465130       -2.2162540479        0.2933614833
 H         -0.9245873553        4.0544236428        1.2876210933
 H         -1.5081364419        6.3968477820        1.6553033087
 H         -3.8519067052        7.1392800507        1.3409419901
 H         -5.5816884723        5.5179577654        0.7769782001
 H         -6.5518521196        3.3190827572       -1.8175365329
 H         -8.8890563032        4.0851629110       -2.0789372100
 H        -10.2399702273        4.6129362340       -0.0844559788
 H         -9.2551073669        4.3878277252        2.1652794763
 H         -6.9196464155        3.6165645965        2.4192034333
 H         -7.2043262105        1.1387929374        0.3499302802
 H         -5.9018427044       -2.3111502407        2.0588312876
 H         -5.7587568223       -4.6391949776        2.8187882827
 H         -6.8833478052       -6.4362455759        1.5473181442
 H         -8.1682437930       -5.8702791568       -0.4843988235
 H         -8.3007097509       -3.5404895295       -1.2564286401
 H         -9.6358312824       -2.0169478728        0.6413477106
 H        -11.6967087716       -1.1219479093       -0.3544675345
 H        -11.5784501857        0.4725514299       -2.2366915534
 H         -9.3751900490        1.1421538628       -3.1319026684
 H         -7.3144406856        0.2313837300       -2.1514712434
 H         -4.6603843416       -2.2112848843       -0.2965359055
 H         -2.8397778258       -4.8028852357        2.4362501025
 H         -2.0602661178       -6.1808666746        0.5208177343
 H         -1.4533004332       -5.0697198151       -1.6180489640
