  140
       -231.52753665
 F          3.0886889966       -2.3408720589       -2.3168361362
 C          2.6525606367       -3.0316332270       -1.2413210717
 C          2.5631005100       -4.4028984547       -1.3178577538
 C          2.1023495440       -5.1195333757       -0.2189913448
 C          1.7508653094       -4.4498695556        0.9475860718
 C          1.8622973282       -3.0787932443        0.9997808339
 F          1.5329515357       -2.4370129995        2.1433611602
 C          2.3029594417       -2.3140867348       -0.0894942769
 N          2.3819749186       -0.9029245040       -0.0570835114
 C          1.2134395501       -0.1710166997       -0.0740434573
 C         -0.0006594276       -0.8443651231       -0.0168063536
 C         -1.2142160282       -0.1699731096        0.0437341248
 C         -1.2276933711        1.2500561549        0.1634064139
 C          0.0002406571        1.8895040537       -0.0149124461
 C          1.2277548968        1.2490732361       -0.1924980344
 B          2.5752643391        1.9349041485       -0.4827873268
 C          2.8971040132        3.3843995626       -0.8963467745
 C          1.9518547811        4.3340528409       -1.3090066916
 C          2.2844797420        5.6408380131       -1.5924135866
 C          3.6039916066        6.0557028495       -1.4638982621
 C          4.5778759842        5.1455801723       -1.1108795433
 C          4.2515585507        3.8062965743       -0.8628282987
 N          5.2720694765        2.9159187349       -0.5805309711
 C          6.6087986331        3.4000174376       -0.4959554728
 C          7.1905198277        3.5789983599        0.7531751027
 C          8.5020298709        4.0076060976        0.8481373563
 C          9.2348809637        4.2613146553       -0.2993085392
 C          8.6538082629        4.0882147288       -1.5448295061
 C          7.3437361461        3.6554558483       -1.6473637606
 C          5.0933152405        1.5646296756       -0.3783688569
 C          6.2053404301        0.7324911637       -0.2561025118
 C          6.0378826640       -0.6179287274        0.0441487055
 N          7.1544949972       -1.4346315569        0.2403577130
 C          7.1091072927       -2.7809204691       -0.1283811882
 C          6.3969249129       -3.1858147989       -1.2589864368
 C          6.3324937520       -4.5218631923       -1.5996387998
 C          6.9816643605       -5.4761234983       -0.8327516381
 C          7.7004651696       -5.0791840425        0.2831660735
 C          7.7634382921       -3.7461088173        0.6385289183
 C          8.3160700814       -0.8964594748        0.8014567848
 C          8.2361752668        0.0573097368        1.8178566236
 C          9.3847936170        0.6084850959        2.3487440647
 C         10.6307246616        0.2146261365        1.8878633762
 C         10.7173070146       -0.7408931544        0.8883283413
 C          9.5735625674       -1.2915211295        0.3441102087
 C          4.7557608660       -1.1493002968        0.1566622635
 C          3.6458357470       -0.3420233774       -0.0802391516
 C          3.7857495219        1.0405997574       -0.3153264254
 B         -2.5744483688        1.9364517965        0.4571090662
 C         -2.8949887643        3.3864014954        0.8711608864
 C         -1.9485012929        4.3380500040        1.2764029274
 C         -2.2812987471        5.6442252387        1.5624383696
 C         -3.6025881753        6.0566852568        1.4452374575
 C         -4.5774274634        5.1447587108        1.0998326401
 C         -4.2502098668        3.8064177427        0.8478012246
 N         -5.2716589493        2.9149331790        0.5735872565
 C         -6.6100213550        3.3979616371        0.5053534531
 C         -7.1998093391        3.5994874294       -0.7363780165
 C         -8.5123087888        4.0289243693       -0.8146158479
 C         -9.2378691412        4.2601341280        0.3421176880
 C         -8.6488134938        4.0635976394        1.5804422931
 C         -7.3376345152        3.6306446956        1.6661815492
 C         -5.0931591953        1.5640369450        0.3700904294
 C         -6.2056133551        0.7312952996        0.2563610202
 C         -6.0396109487       -0.6197738022       -0.0412847843
 N         -7.1569624129       -1.4388442528       -0.2227304802
 C         -7.1061598159       -2.7829846318        0.1530854782
 C         -6.3784744655       -3.1813469103        1.2761495510
 C         -6.3075052484       -4.5155641387        1.6225556433
 C         -6.9658277716       -5.4744523140        0.8693925117
 C         -7.7009058934       -5.0838842280       -0.2381477710
 C         -7.7704244671       -3.7526892279       -0.5994235264
 C         -8.3268064376       -0.9026862656       -0.7685903721
 C         -9.5774590841       -1.2938966335       -0.2898246735
 C        -10.7287423616       -0.7430470442       -0.8177384909
 C        -10.6563574299        0.2084020739       -1.8222662637
 C         -9.4172866236        0.5977805095       -2.3049986088
 C         -8.2613554945        0.0465039832       -1.7903030164
 C         -4.7579116072       -1.1500134874       -0.1642516361
 C         -3.6466383682       -0.3414259185        0.0616708772
 C         -3.7855215445        1.0412867900        0.2973105980
 N         -2.3829047668       -0.9015595679        0.0290241219
 C         -2.3014829141       -2.3129546141        0.0554905681
 C         -2.6330776504       -3.0358248889        1.2091875347
 F         -3.0588414283       -2.3507695300        2.2923537999
 C         -2.5354955308       -4.4069292442        1.2797584013
 C         -2.0850048429       -5.1173855825        0.1726419976
 C         -1.7521857507       -4.4421451536       -0.9962782690
 C         -1.8709760158       -3.0714795830       -1.0420811902
 F         -1.5579254825       -2.4233604124       -2.1866035438
 H          2.8408892225       -4.9003725278       -2.2324799132
 H          2.0207002020       -6.1918496725       -0.2696724474
 H          1.3970678052       -4.9837451322        1.8143182090
 H         -0.0011308388       -1.9202525908       -0.0186003441
 H          0.0009642386        2.9635868082       -0.0155303170
 H          0.9269380219        4.0217500529       -1.4244101766
 H          1.5233138951        6.3422594724       -1.9018199147
 H          3.8755243852        7.0837759877       -1.6524510236
 H          5.6019184880        5.4767708685       -1.0322186739
 H          6.6088376756        3.3745793272        1.6397638844
 H          8.9521445229        4.1439870974        1.8196521030
 H         10.2588122881        4.5938336154       -0.2232651201
 H          9.2231863891        4.2856404394       -2.4405936898
 H          6.8817224695        3.5110056612       -2.6129601576
 H          7.2039508301        1.1182651779       -0.3749460754
 H          5.8977428338       -2.4462931296       -1.8654462251
 H          5.7792919163       -4.8180819638       -2.4785478825
 H          6.9303844960       -6.5194114387       -1.1039058243
 H          8.2091216998       -5.8148528917        0.8884948710
 H          8.3137931682       -3.4416939602        1.5164877512
 H          7.2665914345        0.3573887746        2.1853639916
 H          9.3064392085        1.3434701632        3.1362503671
 H         11.5268410562        0.6466462788        2.3059637445
 H         11.6836927886       -1.0539201554        0.5217953451
 H          9.6433231036       -2.0270581355       -0.4437907193
 H          4.6389117193       -2.1864829667        0.4280171404
 H         -0.9221894679        4.0279823364        1.3846311725
 H         -1.5189186587        6.3469230259        1.8659323824
 H         -3.8746095974        7.0840459932        1.6368453037
 H         -5.6030636526        5.4732220038        1.0308094714
 H         -6.6237651995        3.4125431094       -1.6304861684
 H         -8.9686852418        4.1838214021       -1.7804708021
 H        -10.2624449678        4.5934519699        0.2790556983
 H         -9.2126033287        4.2433491096        2.4833946010
 H         -6.8688904977        3.4685837050        2.6257218240
 H         -7.2033968195        1.1172369782        0.3812664351
 H         -5.8720764406       -2.4383087167        1.8722000415
 H         -5.7417888083       -4.8065050434        2.4952352356
 H         -6.9091519618       -6.5163367624        1.1447878378
 H         -8.2171516203       -5.8232364173       -0.8324679322
 H         -8.3335559363       -3.4532571434       -1.4709990956
 H         -9.6357837321       -2.0259755521        0.5021913076
 H        -11.6897400731       -1.0522311785       -0.4341591932
 H        -11.5582204803        0.6407202230       -2.2274555553
 H         -9.3501880630        1.3297938025       -3.0963026431
 H         -7.2971313709        0.3431832895       -2.1744418416
 H         -4.6423905248       -2.1877539781       -0.4339745298
 H         -2.7991909324       -4.9090825823        2.1959228095
 H         -1.9967540964       -6.1893959886        0.2186849361
 H         -1.4063684994       -4.9713756135       -1.8690853024
