  76
  -120.202535960000       0.182171118622498      !
 C          0.9490913963       -6.4896023140       -0.1337453015
 C          2.1836798032       -5.8995080410       -0.3426603464
 C          2.2983260815       -4.5143391306       -0.3653405157
 C          1.1881754936       -3.7079855111       -0.1618473290
 C          1.1683018556       -2.2603812450       -0.1319853171
 C          2.3454352532       -1.4290807238       -0.0497532743
 C          2.2959989483       -0.1261811854       -0.5783860703
 C          3.3865308176        0.7067820330       -0.5225474537
 C          4.5682153798        0.2785475676        0.0859002564
 N          5.6892918383        1.1175817827        0.1385797132
 C          6.9695320173        0.7716712385       -0.2383356924
 C          7.4369836574       -0.4131843709       -0.7908384623
 C          8.7809449155       -0.4932934013       -1.1013371275
 C          9.6435889520        0.5777120922       -0.8784255507
 C          9.1795716659        1.7679635889       -0.3509979625
 C          7.8336267293        1.8729381070       -0.0312382843
 C          7.0214271339        2.9310586824        0.5035984143
 C          7.2912217727        4.2271844214        0.9183979228
 C          6.2544159985        4.9902355684        1.4214702601
 C          4.9659507534        4.4707712312        1.5256889855
 C          4.6719245135        3.1836521499        1.1180031709
 C          5.7045141906        2.4199714421        0.5903878595
 C          4.6160225933       -0.9927474110        0.6585375139
 C          3.5253300221       -1.8292777784        0.5962316813
 N          0.0023277201       -1.6261952419       -0.1559712196
 C         -1.1592208114       -2.2366261239       -0.0734739455
 C         -2.3840370413       -1.4712368798       -0.0754386612
 C         -2.3551895840       -0.0730859626       -0.1044588069
 C         -3.5251092626        0.6507687225       -0.1024012292
 C         -4.7569331107       -0.0065239796       -0.0802694739
 N         -5.9479990087        0.7293664795       -0.0835051226
 C         -7.0075117611        0.5546098137        0.7835737056
 C         -7.1371341961       -0.3162795704        1.8568437462
 C         -8.3105644226       -0.2712437703        2.5854186618
 C         -9.3308478067        0.6220128514        2.2670448472
 C         -9.1964927153        1.5099510876        1.2168224912
 C         -8.0272029671        1.4836672636        0.4702990120
 C         -7.5493146743        2.2516873495       -0.6465620091
 C         -8.0922833570        3.2841495285       -1.3978171023
 C         -7.3547713910        3.7969330618       -2.4478579782
 C         -6.0994757181        3.2809779207       -2.7614508255
 C         -5.5375376588        2.2536342492       -2.0275819415
 C         -6.2618908336        1.7529581146       -0.9543757408
 C         -4.7932447179       -1.4014868929       -0.0535521686
 C         -3.6215805606       -2.1228234010       -0.0457779803
 N         -1.2117736523       -3.5724757359        0.0013827726
 C         -0.1027895419       -4.3146201601       -0.0417662330
 C         -0.1868503926       -5.7128214360       -0.0021613657
 H          0.8641624189       -7.5657019732       -0.0967884050
 H          3.0604000497       -6.5095116254       -0.4989219055
 H          3.2544214770       -4.0656720667       -0.5864773540
 H          1.3855712622        0.1979378533       -1.0586355267
 H          3.3465978758        1.6891443191       -0.9699065358
 H          6.7709749976       -1.2409609925       -0.9814241241
 H          9.1707708173       -1.4049035431       -1.5294290800
 H         10.6882380565        0.4749271544       -1.1314037736
 H          9.8464863216        2.6020740634       -0.1934408552
 H          8.2922625004        4.6258075302        0.8527868682
 H          6.4434646576        6.0017315729        1.7486763828
 H          4.1804616751        5.0862269928        1.9385633225
 H          3.6753972876        2.7816173063        1.2194099797
 H          5.5099480322       -1.3044321153        1.1790415680
 H          3.5650576980       -2.7817522686        1.1017686999
 H         -1.3975665903        0.4247530751       -0.1123263513
 H         -3.5018445215        1.7305105185       -0.0956499984
 H         -6.3443462668       -0.9986353727        2.1228532857
 H         -8.4376062249       -0.9412642146        3.4227795115
 H        -10.2341995654        0.6239081770        2.8585265100
 H         -9.9804066251        2.2137226821        0.9812429951
 H         -9.0724036962        3.6726826452       -1.1660647122
 H         -7.7576469552        4.6028843653       -3.0427750215
 H         -5.5544723315        3.6905378424       -3.5989096275
 H         -4.5726910479        1.8471160588       -2.2897086762
 H         -5.7478396125       -1.9064367450       -0.0608644002
 H         -3.6340905594       -3.2018880213       -0.0311272521
 H         -1.1581591709       -6.1593689888        0.1399499981
  76
  -120.202473290000       0.170481943321753      !
 C          0.9524095414       -6.5002538000        0.2856086321
 C          2.1816967959       -5.9309490195        0.0012853356
 C          2.2937680592       -4.5524014170       -0.1383506688
 C          1.1860745215       -3.7332412616        0.0195465176
 C          1.1658400311       -2.2884937729       -0.0733170213
 C          2.3447044358       -1.4557707302       -0.0483445712
 C          3.5119125177       -1.8074700652        0.6467242984
 C          4.5982533593       -0.9638238153        0.6762803307
 C          4.5600861576        0.2643307511        0.0152579501
 N          5.6716531120        1.1165062908        0.0479517103
 C          5.6571454511        2.4476333826        0.4076172707
 C          4.5961391781        3.2367985782        0.8311542877
 C          4.8624489962        4.5521846403        1.1596974695
 C          6.1511585561        5.0751593159        1.0800001371
 C          7.2153575844        4.2881680238        0.6822582796
 C          6.9733794981        2.9638668756        0.3471396046
 C          7.8169975666        1.8784917804       -0.0718759628
 C          9.1775148792        1.7645712872       -0.3185994817
 C          9.6742967120        0.5447169386       -0.7373497374
 C          8.8302784597       -0.5476342007       -0.9251086264
 C          7.4722576752       -0.4588853525       -0.6863719211
 C          6.9708055357        0.7571521263       -0.2417641087
 C          3.3949861756        0.6399593394       -0.6564893208
 C          2.3066929296       -0.1978932226       -0.6760940846
 N          0.0006155027       -1.6584451325       -0.1433775441
 C         -1.1593256083       -2.2567805830        0.0191796726
 C         -2.3816955515       -1.4895981936       -0.0245314056
 C         -2.3534290355       -0.1156004770       -0.2864863754
 C         -3.5187491080        0.6144372514       -0.3204477080
 C         -4.7453552237       -0.0123446003       -0.0925845016
 N         -5.9317981787        0.7312601617       -0.1226377813
 C         -6.3259581638        1.5833536099       -1.1334878907
 C         -5.7052652006        1.8652828090       -2.3426481315
 C         -6.3349986300        2.7477816489       -3.1995289112
 C         -7.5563878870        3.3324545839       -2.8727507800
 C         -8.1901692423        3.0376830208       -1.6807222061
 C         -7.5772552196        2.1547287039       -0.8033151019
 C         -7.9442909463        1.6178462540        0.4784083533
 C         -9.0306011943        1.8104769462        1.3199063268
 C         -9.0594620957        1.1385680288        2.5271292280
 C         -8.0166431519        0.2953264333        2.9039632705
 C         -6.9246568436        0.0870185476        2.0830944005
 C         -6.9012215249        0.7414511586        0.8591292325
 C         -4.7818056017       -1.3827208683        0.1689476387
 C         -3.6145586816       -2.1106670332        0.2026856754
 N         -1.2094390270       -3.5800312711        0.2216126010
 C         -0.1018683928       -4.3251801173        0.2181791819
 C         -0.1818844533       -5.7152730424        0.3780018784
 H          0.8699138165       -7.5695482677        0.4133570498
 H          3.0553347802       -6.5524738343       -0.1235459030
 H          3.2438455336       -4.1217154921       -0.4152525847
 H          3.5412726460       -2.7219533407        1.2187566839
 H          5.4789521978       -1.2331751539        1.2409105926
 H          3.5984165315        2.8339004308        0.9149748742
 H          4.0542959457        5.1875419285        1.4905125966
 H          6.3183221384        6.1086189642        1.3442010164
 H          8.2162644462        4.6900614381        0.6373413909
 H          9.8304500712        2.6143499123       -0.1888908024
 H         10.7306337619        0.4345542598       -0.9319648130
 H          9.2462594610       -1.4833905562       -1.2680246233
 H          6.8219027235       -1.3046144072       -0.8501962839
 H          3.3652262800        1.5852621737       -1.1781754929
 H          1.4078097102        0.0874055110       -1.2005038731
 H         -1.3984174413        0.3605707373       -0.4475411076
 H         -3.4946574993        1.6790698686       -0.5008034469
 H         -4.7679031247        1.4023179462       -2.6111012908
 H         -5.8718783693        2.9861495808       -4.1454817898
 H         -8.0158499760        4.0185113509       -3.5684728055
 H         -9.1442832988        3.4791550265       -1.4355895958
 H         -9.8316754382        2.4760716187        1.0360229454
 H         -9.8963715753        1.2738701190        3.1958405613
 H         -8.0601411480       -0.2031415157        3.8609473226
 H         -6.1119052771       -0.5533991020        2.3902200006
 H         -5.7349979843       -1.8662854183        0.3239732791
 H         -3.6276474588       -3.1723215936        0.3963425039
 H         -1.1484596269       -6.1488776880        0.5789165220
  76
  -120.202370260000       0.152872397831746      !
 C          0.9421363055       -6.4098533890       -0.3384964410
 C          2.1761336667       -5.8146429192       -0.5363922962
 C          2.2922647563       -4.4294974731       -0.5140638668
 C          1.1832897023       -3.6302434328       -0.2802244588
 C          1.1644162521       -2.1836935676       -0.2157588443
 C          2.3501670102       -1.3688045927       -0.0959481782
 C          2.3422630130       -0.0614429848       -0.6130775153
 C          3.4503947698        0.7456557571       -0.5222561500
 C          4.6043172642        0.2886301719        0.1180755100
 N          5.7439089571        1.0987379218        0.2034249389
 C          7.0288324673        0.7107477731       -0.1150838722
 C          7.4880352777       -0.4982412282       -0.6205310356
 C          8.8410106425       -0.6199591977       -0.8732626706
 C          9.7219272424        0.4338462675       -0.6410308178
 C          9.2674355250        1.6485970380       -0.1638209072
 C          7.9128370467        1.7948448005        0.0978783384
 C          7.1086341333        2.8878132003        0.5706074507
 C          7.3976353343        4.1891086114        0.9550009686
 C          6.3637061625        4.9945579454        1.3933223561
 C          5.0595855541        4.5103248680        1.4665877116
 C          4.7468019612        3.2184082937        1.0888408338
 C          5.7764666013        2.4127648321        0.6209927578
 C          4.6064197149       -0.9866302088        0.6849991793
 C          3.5020694522       -1.8001373539        0.5797566906
 N          0.0009996498       -1.5457123233       -0.2348883526
 C         -1.1604179245       -2.1577583925       -0.1532145479
 C         -2.3902290725       -1.4011230254       -0.1338609364
 C         -2.3871559265       -0.0090676972       -0.2707225758
 C         -3.5678299498        0.6981148213       -0.2504488400
 C         -4.7827743300        0.0295769200       -0.0900439166
 N         -5.9883046097        0.7426431434       -0.0675089688
 C         -6.9700969121        0.6275492654        0.8948390527
 C         -6.9729201708       -0.1167604890        2.0665884232
 C         -8.0854726695       -0.0301391736        2.8815686085
 C         -9.1686507667        0.7804799041        2.5494832834
 C         -9.1612661297        1.5414696644        1.3959617633
 C         -8.0545574352        1.4723871762        0.5618192845
 C         -7.7007039613        2.1208682545       -0.6711612856
 C         -8.3507979147        3.0296619184       -1.4936992218
 C         -7.7193032616        3.4437988525       -2.6510540814
 C         -6.4623743568        2.9532489622       -2.9973846725
 C         -5.7951295741        2.0472020730       -2.1950141225
 C         -6.4155320328        1.6435695008       -1.0207772323
 C         -4.7934279804       -1.3591545191        0.0493921252
 C         -3.6124354667       -2.0635739584        0.0269292919
 N         -1.2127133367       -3.4951876162       -0.0936241551
 C         -0.1069613302       -4.2384981360       -0.1675158106
 C         -0.1920139145       -5.6373628994       -0.1706364476
 H          0.8558427183       -7.4865276297       -0.3389653842
 H          3.0507160781       -6.4201046888       -0.7198522649
 H          3.2474239743       -3.9729928733       -0.7238226283
 H          1.4529570443        0.2872079164       -1.1150945840
 H          3.4455765306        1.7294797954       -0.9678999815
 H          6.8103552382       -1.3140994921       -0.8206719498
 H          9.2233683749       -1.5517903880       -1.2627881041
 H         10.7730008455        0.2984162141       -0.8478912044
 H          9.9482518356        2.4703329006       -0.0007040670
 H          8.4110148923        4.5590073525        0.9154553190
 H          6.5669901274        6.0113013497        1.6946966330
 H          4.2758566987        5.1577915089        1.8309841145
 H          3.7371156465        2.8458118057        1.1689778268
 H          5.4745623832       -1.3197688036        1.2347726341
 H          3.5055187543       -2.7584333067        1.0761139551
 H         -1.4412449609        0.4988486496       -0.3811180527
 H         -3.5643530654        1.7748078772       -0.3368692178
 H         -6.1300097304       -0.7338252830        2.3384396589
 H         -8.1141266216       -0.6006352642        3.7980273770
 H        -10.0211621511        0.8187120184        3.2110553399
 H         -9.9948957096        2.1809362510        1.1479681628
 H         -9.3314814305        3.3987443234       -1.2340575293
 H         -8.2079539864        4.1512848196       -3.3042131074
 H         -6.0009295976        3.2849466186       -3.9156852406
 H         -4.8294975071        1.6575571381       -2.4793110233
 H         -5.7378379789       -1.8728383372        0.1532437438
 H         -3.6048123482       -3.1386279693        0.1224854498
 H         -1.1624996924       -6.0878239684       -0.0354622249
  76
  -120.202308670000       0.143226794869311      !
 C          0.9457417510       -6.4622653480       -0.2386390319
 C          2.1861692562       -5.8673097233       -0.3921437031
 C          2.3027066584       -4.4834275828       -0.3575994977
 C          1.1863543490       -3.6845939625       -0.1558463737
 C          1.1653250142       -2.2375917971       -0.0719717204
 C          2.3477918483       -1.4197724883        0.0597371289
 C          2.3394312995       -0.1178619144       -0.4720250970
 C          3.4337917111        0.7039357521       -0.3563371010
 C          4.5800687145        0.2606254167        0.3065197849
 N          5.7038751180        1.0917768855        0.4128420820
 C          6.3230265461        1.7415122808       -0.6335652491
 C          6.0330135543        1.7043296080       -1.9909319361
 C          6.8356103372        2.4403924609       -2.8414084100
 C          7.9073602595        3.1904621733       -2.3623200523
 C          8.2146666877        3.2133490328       -1.0149487513
 C          7.4231483453        2.4826502219       -0.1407619096
 C          7.4564089518        2.2640754840        1.2793073474
 C          8.2768974077        2.7253808827        2.2984669627
 C          8.0094083845        2.3273901003        3.5947084411
 C          6.9311252680        1.4930998890        3.8809064849
 C          6.0996884873        1.0208170632        2.8834100350
 C          6.3775428754        1.3977350522        1.5762733301
 C          4.5888255535       -1.0142631561        0.8725568060
 C          3.4922521556       -1.8378976515        0.7548077302
 N          0.0015597780       -1.6042735364       -0.1271210375
 C         -1.1640314292       -2.2136428286       -0.1140835329
 C         -2.3869399204       -1.4477129986       -0.1607130666
 C         -2.3575973918       -0.0499746336       -0.2095103678
 C         -3.5271102613        0.6725726501       -0.2667290934
 C         -4.7585343652        0.0146121531       -0.2691327543
 N         -5.9509949911        0.7466541668       -0.3293419168
 C         -6.2924901121        1.8058016506        0.4862664954
 C         -5.5924177840        2.3665805195        1.5457883597
 C         -6.1807695134        3.4183826401        2.2219918067
 C         -7.4379111956        3.9005636138        1.8648756883
 C         -8.1500503248        3.3304215865        0.8268428842
 C         -7.5801840082        2.2728525480        0.1326610277
 C         -8.0278414877        1.4481698928       -0.9560103592
 C         -9.1819029076        1.4251831703       -1.7258497571
 C         -9.2845598036        0.4880346048       -2.7362612657
 C         -8.2482397687       -0.4066892045       -2.9925776042
 C         -7.0897630248       -0.4037678933       -2.2393289749
 C         -6.9917577338        0.5181958806       -1.2060907230
 C         -4.7957146566       -1.3793944720       -0.2114771220
 C         -3.6247752126       -2.0997957670       -0.1609296978
 N         -1.2169293042       -3.5494464073       -0.0490814182
 C         -0.1074410270       -4.2917003496       -0.0933321352
 C         -0.1926120174       -5.6897210672       -0.1045605929
 H          0.8585442726       -7.5388613790       -0.2472638453
 H          3.0669232841       -6.4726217627       -0.5436073164
 H          3.2671191836       -4.0287367672       -0.5230108603
 H          1.4516477142        0.2232303356       -0.9821420071
 H          3.4107556040        1.7047900973       -0.7620637965
 H          5.2149683519        1.1116796175       -2.3713012068
 H          6.6299701422        2.4307687127       -3.9015279548
 H          8.5100384591        3.7538852607       -3.0588988331
 H          9.0546002078        3.7830649664       -0.6471145375
 H          9.1031075910        3.3848764244        2.0798956049
 H          8.6373468733        2.6736399641        4.4019907238
 H          6.7381035835        1.2126274877        4.9057609911
 H          5.2551385019        0.3901118702        3.1156361841
 H          5.4688301013       -1.3551835315        1.3980950388
 H          3.5021854145       -2.7996202146        1.2440629900
 H         -1.4001391770        0.4481726596       -0.2096442215
 H         -3.5031384681        1.7503777106       -0.3314157268
 H         -4.6261216308        1.9870124214        1.8410222425
 H         -5.6557942451        3.8739808801        3.0484600033
 H         -7.8628119951        4.7258401276        2.4165942576
 H         -9.1314172320        3.6938228505        0.5616070765
 H         -9.9786039012        2.1290688311       -1.5389529025
 H        -10.1754980582        0.4517464658       -3.3450810276
 H         -8.3507481823       -1.1162134047       -3.8001735418
 H         -6.2841414495       -1.0884664683       -2.4560372584
 H         -5.7510529631       -1.8825828958       -0.1878997392
 H         -3.6378594132       -3.1778568788       -0.1119929382
 H         -1.1687532135       -6.1397808640       -0.0179561360
  76
  -120.202284550000       0.139617381580116      !
 C          0.9288422543       -6.4892775909       -0.2739510626
 C          2.1543620727       -5.9033936774       -0.5409710372
 C          2.2757408678       -4.5186061802       -0.5538095875
 C          1.1818459729       -3.7095159967       -0.2851770504
 C          1.1728006090       -2.2619952826       -0.2356848133
 C          2.3544174685       -1.4410394822       -0.1364583383
 C          2.2986308671       -0.1087140991       -0.5867041362
 C          3.3869264849        0.7227449104       -0.4886320904
 C          4.5752725702        0.2616678584        0.0817175049
 N          5.6894994545        1.1052963580        0.1870767502
 C          6.9685290061        0.8071120207       -0.2310183025
 C          7.4431908169       -0.3250991479       -0.8796922394
 C          8.7831747431       -0.3613025423       -1.2148093825
 C          9.6344035977        0.7021544902       -0.9225291702
 C          9.1631787139        1.8405281324       -0.2958470835
 C          7.8214368804        1.9005712715        0.0513127194
 C          7.0035830805        2.9014557951        0.6798733359
 C          7.2625068833        4.1628052027        1.1960204820
 C          6.2228058403        4.8683758770        1.7718763996
 C          4.9420242455        4.3254115261        1.8478799383
 C          4.6588065211        3.0718121936        1.3403217929
 C          5.6944715587        2.3673937077        0.7412248794
 C          4.6345128250       -1.0447483072        0.5674977001
 C          3.5447432888       -1.8783975147        0.4660091245
 N          0.0087665894       -1.6224279279       -0.2342287889
 C         -1.1513486893       -2.2275791154       -0.1077192895
 C         -2.3741173172       -1.4579055220       -0.0868693383
 C         -2.3541664250       -0.0760127784       -0.3015368322
 C         -3.5233721973        0.6492543882       -0.2975550511
 C         -4.7435365961        0.0097989653       -0.0726009806
 N         -5.9353791216        0.7459928198       -0.0792521195
 C         -6.8973690342        0.7361326304        0.9091577267
 C         -6.9004867804        0.0758384123        2.1300894662
 C         -7.9890944895        0.2633734626        2.9603862328
 C         -9.0480855536        1.0916036490        2.5952310129
 C         -9.0403483914        1.7679628648        1.3901569581
 C         -7.9579531268        1.5960431065        0.5391168744
 C         -7.6110219809        2.1408162500       -0.7449398873
 C         -8.2475085817        3.0110515919       -1.6183734529
 C         -7.6295662758        3.3154351464       -2.8163843703
 C         -6.3999156568        2.7538539295       -3.1526709597
 C         -5.7464822668        1.8846265899       -2.2998817454
 C         -6.3526874529        1.5918646230       -1.0859803985
 C         -4.7706058346       -1.3668103325        0.1533835132
 C         -3.6001297060       -2.0906106772        0.1435926270
 N         -1.2075778413       -3.5623453420       -0.0136700530
 C         -0.1055120023       -4.3101564746       -0.1094703828
 C         -0.1947557052       -5.7084143416       -0.0772099025
 H          0.8400149482       -7.5653241074       -0.2439307328
 H          3.0179959919       -6.5162259750       -0.7501793287
 H          3.2210010831       -4.0715988761       -0.8204650291
 H          1.3825745344        0.2422694631       -1.0360304353
 H          3.3396239322        1.7320910116       -0.8705789682
 H          6.7853188056       -1.1453170930       -1.1234555388
 H          9.1786896954       -1.2312402556       -1.7179338767
 H         10.6758618729        0.6351276972       -1.1989655562
 H          9.8213543879        2.6692935208       -0.0827705211
 H          8.2577816979        4.5787561324        1.1517849464
 H          6.4038243756        5.8517842295        2.1792979058
 H          4.1543561292        4.8946438225        2.3189858651
 H          3.6686519861        2.6492964560        1.4194444941
 H          5.5357439252       -1.3866642570        1.0553872738
 H          3.5928386243       -2.8599571821        0.9113578614
 H         -1.4040818689        0.4094371059       -0.4632781641
 H         -3.5073668347        1.7184897874       -0.4495441210
 H         -6.0753912271       -0.5538506255        2.4266900186
 H         -8.0173598684       -0.2397683421        3.9154357488
 H         -9.8815482663        1.2110867620        3.2711633551
 H         -9.8547590336        2.4210939067        1.1151504155
 H         -9.2077358211        3.4347726194       -1.3660773009
 H         -8.1082990320        3.9906681412       -3.5098404531
 H         -5.9497616093        2.9989793275       -4.1031996788
 H         -4.8026307200        1.4388427323       -2.5748405750
 H         -5.7192225712       -1.8580674326        0.3126244313
 H         -3.6060695613       -3.1580388771        0.3027776778
 H         -1.1600258280       -6.1516442634        0.1095009437
  76
  -120.202211970000       0.129295684695148      !
 C          0.9311000806       -6.4794414205        0.6301813653
 C          2.1673348183       -5.9266602016        0.3432138859
 C          2.2869475997       -4.5564631472        0.1436642075
 C          1.1793338594       -3.7276608787        0.2451603079
 C          1.1658763369       -2.2857306376        0.1013061180
 C          2.3470998040       -1.4574052719        0.1228136851
 C          2.3244045590       -0.2207518389       -0.5475449572
 C          3.4098123258        0.6200621105       -0.5268081403
 C          4.5652143568        0.2616652031        0.1711477220
 N          5.6772063453        1.1143437431        0.1878157573
 C          6.2688711129        1.6847671339       -0.9193139023
 C          5.9615975882        1.5276046307       -2.2643310924
 C          6.7356385528        2.2065728270       -3.1856715123
 C          7.7969008461        3.0166543479       -2.7878004581
 C          8.1236031567        3.1568509236       -1.4521564564
 C          7.3610495703        2.4850533882       -0.5079247544
 C          7.4208767140        2.3852244467        0.9244499772
 C          8.2506156595        2.9415977419        1.8869821689
 C          8.0125844804        2.6471071664        3.2161518513
 C          6.9523136294        1.8242886103        3.5895557277
 C          6.1115968758        1.2595037881        2.6496601135
 C          6.3623765819        1.5289063519        1.3107125890
 C          4.5917942901       -0.9480875267        0.8652263256
 C          3.5019922369       -1.7886001715        0.8471952063
 N          0.0026715581       -1.6613841716       -0.0316499889
 C         -1.1630101705       -2.2524392227        0.1119398994
 C         -2.3827155063       -1.4892054070       -0.0129758079
 C         -2.3445466996       -0.1300650306       -0.3415856468
 C         -3.5078120683        0.5962626871       -0.4503960430
 C         -4.7412200837       -0.0196514095       -0.2314080162
 N         -5.9257982609        0.7210121740       -0.3344874619
 C         -6.9193197672        0.7874239510        0.6201661692
 C         -6.9731004278        0.2051089295        1.8791072056
 C         -8.0845111700        0.4605532718        2.6594856961
 C         -9.1170163075        1.2797654239        2.2083468609
 C         -9.0588256958        1.8791814770        0.9644828245
 C         -7.9525314619        1.6383934243        0.1624012177
 C         -7.5539789984        2.0983061626       -1.1398241717
 C         -8.1451220957        2.9250172981       -2.0845041352
 C         -7.4816492634        3.1480441648       -3.2759550220
 C         -6.2513832358        2.5484280932       -3.5354247111
 C         -5.6425592211        1.7213328593       -2.6107720803
 C         -6.2944141618        1.5106727831       -1.4036076125
 C         -4.7877927872       -1.3756403630        0.0944234985
 C         -3.6227551675       -2.1001496809        0.2013668619
 N         -1.2207162890       -3.5620751462        0.3841073431
 C         -0.1144386148       -4.3078541917        0.4395937268
 C         -0.2020812916       -5.6882818501        0.6627226245
 H          0.8422079032       -7.5414674699        0.8054848935
 H          3.0416683849       -6.5548939438        0.2649196075
 H          3.2447141009       -4.1425472500       -0.1317021089
 H          1.4301982397        0.0554827816       -1.0846938064
 H          3.3715953214        1.5732652238       -1.0334423906
 H          5.1526748771        0.8871741941       -2.5818265863
 H          6.5155903587        2.1034881946       -4.2378375294
 H          8.3763546098        3.5333789690       -3.5381944033
 H          8.9560271989        3.7723019214       -1.1463856764
 H          9.0616025834        3.5934929017        1.5999794920
 H          8.6491457415        3.0669651234        3.9803108947
 H          6.7809413818        1.6263909547        4.6372071146
 H          5.2801600978        0.6400404641        2.9495319768
 H          5.4798238233       -1.2255805869        1.4139010224
 H          3.5254821951       -2.6907483222        1.4387490137
 H         -1.3846642835        0.3388266369       -0.4938473874
 H         -3.4774168908        1.6504312422       -0.6830516169
 H         -6.1686220250       -0.4163199703        2.2421273912
 H         -8.1518429823        0.0189850805        3.6427590838
 H         -9.9696070755        1.4539028968        2.8474892934
 H         -9.8526611843        2.5260724868        0.6225720588
 H         -9.1056221969        3.3782414861       -1.8911618387
 H         -7.9243259803        3.7886687511       -4.0236695135
 H         -5.7645793080        2.7305754051       -4.4818705181
 H         -4.6974394336        1.2462296149       -2.8255528419
 H         -5.7460629805       -1.8509880037        0.2426695059
 H         -3.6426284218       -3.1507440017        0.4463015377
 H         -1.1747831013       -6.1102899177        0.8591186342
  76
  -120.201785480000       8.233467907942819E-002 !
 C          0.9563582257       -6.3155388127       -0.2162450079
 C          2.1864357609       -5.7153007268       -0.4237838694
 C          2.2955251621       -4.3303772937       -0.4123635123
 C          1.1833644052       -3.5350065928       -0.1766435626
 C          1.1581056528       -2.0868764643       -0.0868386285
 C          2.3437256777       -1.2824737283        0.0727023339
 C          2.3512477068        0.0457338595       -0.3913756852
 C          3.4651835189        0.8391871925       -0.2598252369
 C          4.6206508874        0.3393222449        0.3454118990
 N          5.7773739956        1.1236707880        0.4444765101
 C          6.3831148073        1.7966878620       -0.5965645791
 C          6.0099672020        1.8823333908       -1.9312757562
 C          6.8172080356        2.6142447569       -2.7812053055
 C          7.9749748570        3.2406176740       -2.3255981987
 C          8.3656618434        3.1379770563       -1.0038833133
 C          7.5707137040        2.4094650204       -0.1310862660
 C          7.6783363049        2.0810071617        1.2637164033
 C          8.6073986233        2.3870859518        2.2474898468
 C          8.3972910914        1.9099444410        3.5273826270
 C          7.2672684110        1.1552805844        3.8340162777
 C          6.3279609488        0.8380473216        2.8714407274
 C          6.5498579358        1.2863811509        1.5758853122
 C          4.6099628101       -0.9594035531        0.8564496342
 C          3.4918702203       -1.7502340638        0.7315116654
 N         -0.0095722275       -1.4577106962       -0.1479954761
 C         -1.1700457462       -2.0760713071       -0.1189611973
 C         -2.4089700073       -1.3357184790       -0.1804053734
 C         -2.4243920784        0.0532855229       -0.3407038410
 C         -3.6179438094        0.7361905108       -0.4119315773
 C         -4.8285690936        0.0481037966       -0.3100048226
 N         -6.0475652629        0.7340070513       -0.3715836832
 C         -6.3913496808        1.8458016455        0.3712943602
 C         -5.6524819388        2.5404967735        1.3191572763
 C         -6.2527969728        3.6183588096        1.9419302696
 C         -7.5594469838        3.9968318809        1.6429705055
 C         -8.3091694540        3.2935431110        0.7196075200
 C         -7.7275311379        2.2082178890        0.0803490010
 C         -8.2054534031        1.2611082959       -0.8890610977
 C         -9.4136160408        1.1016496291       -1.5525630058
 C         -9.5385316846        0.0666555590       -2.4595223377
 C         -8.4711195689       -0.7891176965       -2.7212599171
 C         -7.2585087236       -0.6499705103       -2.0731751599
 C         -7.1367844884        0.3685134815       -1.1374236261
 C         -4.8196502602       -1.3376585317       -0.1400735256
 C         -3.6265603041       -2.0186693622       -0.0833411112
 N         -1.2146899284       -3.4105014977       -0.0218853458
 C         -0.1040191449       -4.1487281414       -0.0748159449
 C         -0.1818657160       -5.5473953179       -0.0605482448
 H          0.8763889716       -7.3925586871       -0.2026686206
 H          3.0651694045       -6.3172320311       -0.5983979563
 H          3.2498703983       -3.8732990645       -0.6232997333
 H          1.4596595067        0.4299356219       -0.8626678809
 H          3.4504910346        1.8607124243       -0.6105794893
 H          5.1261735228        1.3835695121       -2.2984687229
 H          6.5463477592        2.6988948102       -3.8231779784
 H          8.5779191280        3.8057705621       -3.0205579284
 H          9.2715733753        3.6098696515       -0.6545620903
 H          9.4731287325        2.9884428906        2.0146106847
 H          9.1100807981        2.1339083733        4.3069497896
 H          7.1190743951        0.8147391854        4.8480903903
 H          5.4455167855        0.2702196858        3.1238613909
 H          5.4941041980       -1.3463479062        1.3412652388
 H          3.4889833930       -2.7287020941        1.1860413034
 H         -1.4842646785        0.5775514605       -0.4187544533
 H         -3.6277569109        1.8047345865       -0.5684007572
 H         -4.6470945593        2.2426212880        1.5742966088
 H         -5.6972720749        4.1769836531        2.6805126539
 H         -7.9920763275        4.8466715130        2.1493435408
 H         -9.3275215342        3.5764169505        0.4999142943
 H        -10.2352246228        1.7756878031       -1.3630306462
 H        -10.4717342850       -0.0778946447       -2.9830984165
 H         -8.5923294593       -1.5769179531       -3.4498966737
 H         -6.4314013213       -1.3059721464       -2.2977614027
 H         -5.7566404717       -1.8638307685       -0.0336218051
 H         -3.6048630542       -3.0897551814        0.0473815470
 H         -1.1524237178       -6.0007347509        0.0637230205
