63
 energy: -99.811001378008 gnorm: 0.000151199205 xtb: 6.7.1 (edcfbbe)
C           -3.67126589426079        5.39566226241687       -0.02191292753528
C           -4.59291677613288        4.36172778134269        0.01585228536631
C           -4.16146521452355        3.04663997539694        0.02035797262747
C           -2.80048549537572        2.76755567074261       -0.01205727097925
N           -2.33801690332698        1.41822943374761       -0.00855192968756
C           -2.15761583320233        0.76614461685400       -1.21528787702284
C           -2.56032591116210        1.36539024673111       -2.41189181268403
C           -2.41088481288913        0.70916773664540       -3.61706381000951
C           -1.86378635172397       -0.56183602093556       -3.65723476397873
C           -1.45252836544871       -1.15837802106274       -2.47809558431030
C           -1.58963804619715       -0.51146491139015       -1.25983221481466
C           -1.04323542997905       -1.15231794509562       -0.00544104250232
C           -1.20397332868782       -2.65719844967192       -0.00597272512668
C           -2.37637455610473       -3.38401144018448       -0.01266861939603
C           -2.29942299653890       -4.77057585585166       -0.01156092910025
C           -1.07180972721017       -5.41999650683162       -0.00359292495213
C            0.11066240316631       -4.69946589577586        0.00305452114523
C            0.03666790708493       -3.31404663516401        0.00173010964469
C            1.08536862910452       -2.31545121258719        0.00705110139361
N            2.37618049666632       -2.48225452387543        0.01506984690075
C            3.11827962463333       -1.33743051319931        0.01728826821699
C            4.50411373765617       -1.42871758701370        0.02624184650674
C            5.30000788985510       -0.28368787861572        0.02761108074934
C            6.71639639684508       -0.35671261063900        0.03633851822436
C            7.47446254216711        0.77494751672024        0.03691191426098
C            6.86208066914817        2.04609500940415        0.02895214590483
C            5.50451328314606        2.15860450291915        0.02060939635454
C            4.67919350721627        1.00590538360127        0.01981877094490
C            3.28683883850891        1.09693536312492        0.01158398035027
C            2.49690371880545       -0.04226273126532        0.01042080657674
N            1.13418311754027        0.08938507735771        0.00259334139750
C            0.46617804173428       -1.01649206448625        0.00145956404444
C           -1.59748542786585       -0.51188406150851        1.24598192201883
C           -1.46670790255301       -1.15942224516684        2.46460204082917
C           -1.87886225853124       -0.56129757835316        3.64262228816135
C           -2.41815412459294        0.71295698910753        3.60109978193637
C           -2.56197572555845        1.36961777152566        2.39544660718017
C           -2.16227329481501        0.76723384342317        1.19944686574238
C           -1.87600124821894        3.80261937328618       -0.04947593894324
C           -2.31503893264296        5.11558631700073       -0.05460918992387
H           -4.01068795781387        6.42067068660975       -0.02585075794635
H           -5.65051964504099        4.57874720188415        0.04121298158575
H           -4.87042743886541        2.23205728687088        0.04880760664433
H           -2.99159683751005        2.35436891875418       -2.39158300918070
H           -2.72614895407788        1.19409068150975       -4.52903447887036
H           -1.74657717240783       -1.08155394976474       -4.59578633007756
H           -1.00933553417557       -2.14448025987405       -2.50319161142471
H           -3.33275408881027       -2.88236130154809       -0.01875036655834
H           -3.20918626593019       -5.35244673380921       -0.01686546933138
H           -1.04039542390361       -6.49943128338889       -0.00289459019261
H            1.07266652386387       -5.18844800600489        0.00934797330620
H            4.95551383234344       -2.40989305309520        0.03194780392751
H            7.17809569374370       -1.33341958165537        0.04228382207817
H            8.55253968730604        0.71044059871563        0.04331311587494
H            7.48345931878905        2.92950345975547        0.02929452316675
H            5.02852041354247        3.12838732598825        0.01448582157236
H            2.80127632464737        2.06162705742985        0.00608992348280
H           -1.02704296160436       -2.14705716392242        2.49119961778916
H           -1.76651392153381       -1.08159340411755        4.58145620458160
H           -2.73122284177383        1.20042745335500        4.51246070055617
H           -2.98579394099387        2.36175985964238        2.37490066963898
H           -0.82213582794232        3.56793692833673       -0.07440010684885
H           -1.59617486197085        5.92085873065237       -0.08370741808287
