63
 energy: -99.810995094639 gnorm: 0.000053298322 xtb: 6.7.1 (edcfbbe)
C           -6.13671790951456        3.09231086856289        0.00022296797104
C           -4.86300941809021        3.63746495386723        0.00022884079558
C           -3.75276599592770        2.81068492874917        0.00015008892005
C           -3.92107500588539        1.43193747536697        0.00006780194029
N           -2.78009770449616        0.57431636591531       -0.00000537175879
C           -2.24151049449448        0.17363764879143       -1.20988306207891
C           -2.81523875251761        0.59605652271861       -2.41300923511599
C           -2.29204499175067        0.19823869320978       -3.62642535755344
C           -1.18586394542302       -0.63340490715194       -3.67170910349423
C           -0.61317632806080       -1.05705071557151       -2.48605378690206
C           -1.12470603046806       -0.66597970448848       -1.25771156888007
C           -0.44765177963830       -1.15606733288233       -0.00014691484943
C           -0.32792484904136       -2.66901082986086       -0.00025842234612
C           -1.34560958676922       -3.59931085405946       -0.00034450362750
C           -1.01365210433556       -4.94770848641955       -0.00043538067127
C            0.31268032631299       -5.35904513977408       -0.00044258318643
C            1.34133394624978       -4.43233215177083       -0.00035779856984
C            1.01200557892275       -3.08463520706806       -0.00026715010363
C            1.85729024486977       -1.90881824752539       -0.00016481466284
N            3.15696906564931       -1.83629916297524       -0.00011589424896
C            3.67591569579494       -0.57471637566686       -0.00000170246868
C            5.05502609227359       -0.41095046846232        0.00007634943660
C            5.62776256250655        0.86025047591491        0.00019456374912
C            7.03368090643826        1.04731460601001        0.00029184855361
C            7.57187403447472        2.29849558769314        0.00041340048906
C            6.73710261047564        3.43608102329456        0.00043383869871
C            5.38180494260928        3.29836970450452        0.00034428197359
C            4.78098493843354        2.01417659820934        0.00022817853138
C            3.39531359080878        1.84879913487073        0.00014936074833
C            2.82696974879654        0.58418734600281        0.00004218476115
N            1.46279912263877        0.46402617576745       -0.00001177359453
C            1.00875232250334       -0.74577541493867       -0.00010528113096
C           -1.12469110893140       -0.66616382504365        1.25749917099904
C           -0.61314270848812       -1.05740841478594        2.48577831896274
C           -1.18580846984866       -0.63392598672692        3.67150248368383
C           -2.29198053561898        0.19773689805516        3.62635337065902
C           -2.81518865945104        0.59573189590973        2.41300176339212
C           -2.24148820335841        0.17347002766320        1.20980673590173
C           -5.19757939061341        0.88395830576631        0.00006150867789
C           -6.30308057987337        1.71697234262010        0.00013774580334
H           -7.00058437301590        3.74002518597776        0.00029414855277
H           -4.73211646374804        4.70926988009739        0.00029644540724
H           -2.75412834889506        3.22223291756626        0.00015103324753
H           -3.67819933821324        1.24327008220842       -2.39044224193434
H           -2.75242970916684        0.54027339949356       -4.54144241464044
H           -0.77156838986498       -0.94892900534421       -4.61698306551807
H            0.25145011418885       -1.70733808553789       -2.50986575209689
H           -2.37875427362449       -3.28486775856260       -0.00033919019793
H           -1.80017246586110       -5.68775908341915       -0.00050449410582
H            0.54349665466510       -6.41397647280644       -0.00051756591311
H            2.37710104016072       -4.73529684683058       -0.00036329001318
H            5.67836932450023       -1.29299002408946        0.00004734057682
H            7.66603351667361        0.17138313718826        0.00025979785539
H            8.64354687908789        2.43235756371078        0.00047762220723
H            7.18662895713446        4.41811885920392        0.00053215567015
H            4.73639717469104        4.16470848432597        0.00037190017897
H            2.74078823111983        2.70786540557663        0.00017631684229
H            0.25148027635974       -1.70770372597341        2.50948733937434
H           -0.77149764789189       -0.94958326890468        4.61672541607337
H           -2.75234223982486        0.53965331125428        4.54142624801766
H           -3.67813708009373        1.24296572682296        2.39053930749726
H           -5.31452727708785       -0.18979283816733       -0.00000253177874
H           -7.29509673846596        1.29049780192541        0.00013937529832
