  63
        -99.72205250
 C         -1.4223517626        5.6929598202        0.0605892295
 C         -2.6773063546        5.1787716990       -0.2211043497
 C         -2.8773614997        3.8095785529       -0.2526548193
 C         -1.8106907838        2.9546462765       -0.0059226847
 N         -1.9732859924        1.5425487172       -0.0269359318
 C         -2.0523602772        0.8683471998       -1.2307649966
 C         -2.2702495653        1.5494164454       -2.4308594970
 C         -2.4015929153        0.8538349203       -3.6147145404
 C         -2.3181596178       -0.5302003466       -3.6298778775
 C         -2.0616902667       -1.2109342321       -2.4543287653
 C         -1.9233080738       -0.5284767815       -1.2556768080
 C         -1.4730874425       -1.2261093732       -0.0038901370
 C         -1.6832640003       -2.7183804215        0.0032365766
 C         -2.8697051526       -3.4146782820       -0.0046725847
 C         -2.8260981930       -4.8053365489        0.0070704721
 C         -1.6112536372       -5.4769522140        0.0265890176
 C         -0.4115962427       -4.7872517096        0.0351308050
 C         -0.4505688359       -3.3973956405        0.0236837542
 C          0.6125391231       -2.4325270575        0.0272457493
 N          1.9236905584       -2.5641527061        0.0385810423
 C          2.7222672785       -1.4962379513        0.0274116308
 C          4.0997448659       -1.5982680689        0.0353644853
 C          4.9347961893       -0.4671031058        0.0168882219
 C          6.3382891035       -0.5767190776        0.0257752676
 C          7.1317895257        0.5417264766        0.0044070083
 C          6.5556816221        1.8160582833       -0.0277477315
 C          5.1904250660        1.9565895489       -0.0369657209
 C          4.3501349489        0.8306358619       -0.0142623148
 C          2.9448534455        0.9452736915       -0.0202955186
 C          2.1249796163       -0.1563535526        0.0028345070
 N          0.7809147497       -0.0618085946        0.0017046028
 C          0.0528709451       -1.1330311236        0.0107571726
 C         -1.9606669527       -0.5182417596        1.2267600092
 C         -2.1456214291       -1.1848059763        2.4282029247
 C         -2.4749472892       -0.4903003086        3.5773471839
 C         -2.6018471239        0.8901510661        3.5326607127
 C         -2.4219858000        1.5694423672        2.3459966054
 C         -2.1048146043        0.8747035521        1.1758266334
 C         -0.5531977919        3.4682892653        0.2819013931
 C         -0.3623095697        4.8379371830        0.3145924583
 H         -1.2715162272        6.7615775640        0.0840568988
 H         -3.5049467896        5.8448698052       -0.4138428390
 H         -3.8545076017        3.3986304497       -0.4615996830
 H         -2.3294219816        2.6265197614       -2.4329294463
 H         -2.5695386038        1.3960255408       -4.5330299703
 H         -2.4274735022       -1.0730139612       -4.5557891781
 H         -1.9538660973       -2.2851999079       -2.4630738195
 H         -3.8149743463       -2.8916228599       -0.0192534557
 H         -3.7479875537       -5.3671091594        0.0008385589
 H         -1.6033266815       -6.5571023301        0.0348168184
 H          0.5350419780       -5.3041077805        0.0501691128
 H          4.5384614592       -2.5843550342        0.0546364883
 H          6.7805311745       -1.5623932706        0.0495423807
 H          8.2076386554        0.4439483794        0.0118649735
 H          7.1919329115        2.6888863483       -0.0445527340
 H          4.7418969305        2.9397590030       -0.0611683120
 H          2.4956439420        1.9270843789       -0.0491120707
 H         -2.0211902868       -2.2568115075        2.4601348421
 H         -2.6190070001       -1.0206905734        4.5057528453
 H         -2.8464382857        1.4404837295        4.4286078656
 H         -2.5289831769        2.6430240971        2.3166108382
 H          0.2565371054        2.7807464221        0.4761366132
 H          0.6154182995        5.2386590715        0.5361395727
