63
 energy: -99.763856364701 gnorm: 0.000047272867 xtb: 6.7.1 (edcfbbe)
C           -3.65445806294854        5.38452326761712       -0.02176539921601
C           -4.57392642059722        4.34832261659936        0.01028912096355
C           -4.13968752540475        3.03412416255774        0.01468207473136
C           -2.77770511278793        2.76101666595101       -0.01203008201827
N           -2.31464074855060        1.40996070410580       -0.00847135647525
C           -2.13267078405770        0.76351361984785       -1.21396209421492
C           -2.50299900807218        1.38345718932427       -2.41382977618223
C           -2.35776521816436        0.72860577369393       -3.61715425853461
C           -1.84376304592186       -0.56043031872745       -3.65622674030883
C           -1.46354910051589       -1.17624783551008       -2.47980662336997
C           -1.60067270261509       -0.53343057131025       -1.25609616103216
C           -1.09239066422227       -1.18728382167745       -0.00367684671139
C           -1.25495239156421       -2.69088584812184       -0.00399492134297
C           -2.42118205173634       -3.42013372116938       -0.00688741390255
C           -2.33694380558388       -4.80926252402385       -0.00634861926549
C           -1.10331744536914       -5.44606969217582       -0.00315576144527
C            0.07654389372213       -4.72191057815999       -0.00020340807582
C           -0.00296464033931       -3.33330134808834       -0.00050188416975
C            1.02934896175174       -2.33497812687753        0.00283700501720
N            2.34622327531326       -2.43648718436152        0.00721852374093
C            3.11252989899861       -1.34085410625959        0.01107627771013
C            4.49289203223101       -1.40556477745800        0.01696748165614
C            5.29560779368352       -0.25047189917286        0.02197237817353
C            6.70236279862507       -0.31938419954678        0.02910983311811
C            7.46356463018611        0.82185503259858        0.03450587633881
C            6.85080227867687        2.07987593096609        0.03271527612601
C            5.48188858052004        2.18111261064350        0.02550165135977
C            4.67340174237015        1.03081990889220        0.02020999809179
C            3.26520618631526        1.10527667829151        0.01365730127693
C            2.47877669006966       -0.02159830732577        0.00951836901965
N            1.13000457738891        0.03995961505567        0.00435550811345
C            0.43232047395957       -1.05326258646435        0.00156943992557
C           -1.60921709020496       -0.53259042968727        1.24480601366101
C           -1.48030797646104       -1.17493947723520        2.46963946646084
C           -1.86398041335668       -0.55693013289498        3.64379585110157
C           -2.37120640160852        0.73465900062738        3.60145894795893
C           -2.50887270507029        1.38892014214911        2.39690305528074
C           -2.13862376475070        0.76541252999833        1.19888160500101
C           -1.85390362184899        3.79673240941799       -0.04353955482879
C           -2.29719734250163        5.10842557119129       -0.04854990687516
H           -3.99620590156721        6.40850709066661       -0.02557337136524
H           -5.63189040404687        4.56214397168374        0.03109190609281
H           -4.84614520270801        2.21757023537660        0.03896924578594
H           -2.90357390427411        2.38478735653766       -2.39305418707121
H           -2.64668077615902        1.22429231183260       -4.53149725261977
H           -1.73136568339574       -1.07633164735162       -4.59710289063372
H           -1.04800083746427       -2.17333275013811       -2.50214664224381
H           -3.38133965939993       -2.92538655942820       -0.00935539149398
H           -3.24230895797035       -5.39728644630493       -0.00840385487008
H           -1.06290849504084       -6.52562704744301       -0.00285602259433
H            1.03877056756475       -5.21067129168348        0.00237215101424
H            4.95929736086213       -2.37985571812340        0.01809013747860
H            7.17287236086923       -1.29265867384672        0.03039118359201
H            8.54204290467006        0.75421276974085        0.04015142219881
H            7.46151019866482        2.97120971669536        0.03699318548318
H            5.00409857642403        3.15081558109209        0.02404872173747
H            2.78314929131577        2.07192239406454        0.01250923947477
H           -1.06805122735842       -2.17330843964893        2.49486942953409
H           -1.75820224245218       -1.07264257893395        4.58554124874578
H           -2.66036338065248        1.23303338269447        4.51426730297525
H           -2.90293167393510        2.39275531494668        2.37411779273176
H           -0.79908009924138        3.56615996489338       -0.06408803250136
H           -1.57988131784834        5.91484333420010       -0.07317677408313
