  63
        -99.76894077
 C         -2.3378251927        5.4846244951        0.0782131813
 C         -3.4975128665        4.7865997425       -0.2148732893
 C         -3.4868555586        3.4028837078       -0.2509784416
 C         -2.3051290900        2.7175623053        0.0010956674
 N         -2.2487189401        1.2992034388       -0.0225883587
 C         -2.2130280246        0.6163123331       -1.2262641210
 C         -2.5790067290        1.2365344983       -2.4214423208
 C         -2.5914384238        0.5277303301       -3.6066631541
 C         -2.2437643070       -0.8113040503       -3.6256728159
 C         -1.8442796019       -1.4255570839       -2.4509727981
 C         -1.8188033060       -0.7267207792       -1.2564729154
 C         -1.2321045209       -1.3437947399       -0.0088819096
 C         -1.2629595711       -2.8527743412        0.0017640934
 C         -2.3672308300       -3.6798035777       -0.0104345339
 C         -2.1697676491       -5.0537891718        0.0081885498
 C         -0.8903055132       -5.5925233060        0.0404943417
 C          0.2241181694       -4.7710870176        0.0523114340
 C          0.0297127484       -3.3983880798        0.0315087494
 C          0.9894529870       -2.3132581086        0.0291456721
 N          2.2886693930       -2.3649061685        0.0481416803
 C          2.9257490040       -1.1605028859        0.0271308506
 C          4.3140254724       -1.1299633911        0.0364705903
 C          5.0064348981        0.0795304059        0.0059846038
 C          6.4232087491        0.1305405797        0.0100338553
 C          7.0801654028        1.3228732310       -0.0242171217
 C          6.3596718568        2.5346922914       -0.0640878584
 C          4.9977262475        2.5279723426       -0.0688124876
 C          4.2759178352        1.3090385818       -0.0343945121
 C          2.8813126974        1.2786235231       -0.0402035794
 C          2.1934991422        0.0756703807       -0.0094216215
 N          0.8259962403        0.0869218760       -0.0174392165
 C          0.2603087955       -1.0738338221       -0.0017896163
 C         -1.8243872991       -0.7202542363        1.2325474997
 C         -1.8639521333       -1.4064218057        2.4339802253
 C         -2.2968551993       -0.7837204432        3.5924855331
 C         -2.6819871481        0.5449201279        3.5485274230
 C         -2.6549359715        1.2401052892        2.3557296308
 C         -2.2277052717        0.6175882278        1.1818238573
 C         -1.1426748246        3.4170544180        0.2993661214
 C         -1.1621016045        4.7993062320        0.3381292867
 H         -2.3516718306        6.5638441700        0.1070872886
 H         -4.4152950201        5.3206850377       -0.4119641269
 H         -4.3895192603        2.8501202938       -0.4674904205
 H         -2.8459691061        2.2817093275       -2.4221592095
 H         -2.8759725389        1.0276324676       -4.5206787386
 H         -2.2583029458       -1.3688531157       -4.5494422677
 H         -1.5321961336       -2.4598016464       -2.4657214870
 H         -3.3636595363       -3.2635743083       -0.0345588820
 H         -3.0248514670       -5.7136318111       -0.0026763088
 H         -0.7657066887       -6.6651837937        0.0558893600
 H          1.2242672689       -5.1745052929        0.0772119306
 H          4.8495947617       -2.0670293892        0.0642821386
 H          6.9688093738       -0.8014643419        0.0401042433
 H          8.1597701072        1.3528411236       -0.0221013648
 H          6.9021577953        3.4682160189       -0.0913098187
 H          4.4402218190        3.4531426510       -0.0995256796
 H          2.3171911960        2.1988819299       -0.0755661716
 H         -1.5394834555       -2.4364122344        2.4674198776
 H         -2.3184823800       -1.3296029554        4.5230916001
 H         -3.0108446070        1.0444180184        4.4476995891
 H         -2.9663228621        2.2732455616        2.3270135993
 H         -0.2398327052        2.8588384353        0.4972603395
 H         -0.2592403823        5.3444735594        0.5703076222
