  90
       -137.99381604
 C         -9.8427347483       -5.8352659401       -0.5917750160
 C         -8.6944634504       -5.9622560915       -1.3551666202
 C         -7.6783920086       -5.0313727100       -1.2442028275
 C         -7.7950924057       -3.9532726402       -0.3700036046
 C         -6.7181194324       -2.9589002856       -0.2517013358
 C         -5.3797302235       -3.3737003729       -0.2193596825
 C         -4.3366997927       -2.4775867975       -0.1060282720
 C         -4.6433667311       -1.1258464036       -0.0398096859
 C         -5.9876771026       -0.6882491892       -0.0519802434
 C         -7.0200609241       -1.6064635108       -0.1578984066
 C         -5.9515370268        0.7425189398        0.0752702827
 C         -6.9341013833        1.7194030577        0.1032002279
 C         -6.5616614684        3.0535943418        0.2055608325
 C         -7.5849668196        4.1093524219        0.2339208304
 C         -8.7493718203        3.9470878792        0.9813736717
 C         -9.7134185089        4.9372248831        1.0090716269
 C         -9.5335739174        6.1051227221        0.2868562893
 C         -8.3813731039        6.2765589003       -0.4618792958
 C         -7.4142558977        5.2890587335       -0.4868489580
 C         -5.2028756614        3.3903152683        0.2704299289
 C         -4.2087627705        2.4337762078        0.2527656130
 C         -4.5874213767        1.1015095502        0.1681641715
 N         -3.8083842134       -0.0359649953        0.0981913849
 C         -2.4090346784       -0.0648551674        0.1303390104
 C         -1.6943014890       -0.7543510073       -0.8454004965
 C         -0.3145363649       -0.7576379371       -0.8216238330
 C          0.3875478766       -0.0644109489        0.1631995312
 C          1.8549846527       -0.0315453893        0.1564236573
 C          2.6004687187       -1.1650426011       -0.1672530927
 C          3.9779415287       -1.1184966466       -0.1904094576
 C          4.6554664746        0.0663959937        0.0952759951
 C          6.1214713022        0.0869306753        0.0370183458
 C          6.8479222685        1.2514344863       -0.2100697928
 C          8.2373634078        1.1412273685       -0.2457211897
 C          9.1171311196        2.2918844857       -0.4890333933
 C         10.4123236917        2.2744898070        0.0254312138
 C         11.2601213079        3.3460689912       -0.1761470119
 C         10.8298300257        4.4453874777       -0.9017307182
 C          9.5493642214        4.4644172218       -1.4295558972
 C          8.6953356024        3.3965948825       -1.2248437405
 N          8.8343554468       -0.0293416800       -0.0371116307
 C          8.0670060404       -1.0918618557        0.1769764473
 C          8.7367756356       -2.3779423173        0.3906300962
 C          7.9984386717       -3.5016538184        0.7557741336
 C          8.6327831579       -4.7119783461        0.9584012179
 C         10.0059755995       -4.8133321599        0.7989955771
 C         10.7452462483       -3.6987568406        0.4353183154
 C         10.1166324618       -2.4854884594        0.2315203722
 N          6.7394861992       -1.0782235267        0.2138786634
 C          3.9141283246        1.1966170972        0.4321257237
 C          2.5358312488        1.1451117661        0.4652922672
 C         -0.3378385477        0.6132800599        1.1422261688
 C         -1.7173380189        0.6091498005        1.1335872390
 C         -8.9560052040       -3.8347974602        0.3910885338
 C         -9.9691649953       -4.7686500371        0.2823798192
 H        -10.6353492038       -6.5637966104       -0.6773266411
 H         -8.5915598475       -6.7897984226       -2.0421723970
 H         -6.7924829349       -5.1275084310       -1.8551643873
 H         -5.1622447172       -4.4308087192       -0.2583799179
 H         -3.3150075288       -2.8227726671       -0.0561946255
 H         -8.0458483911       -1.2715468549       -0.1860965944
 H         -7.9751712103        1.4475289791        0.0163766855
 H         -8.8872551526        3.0450139667        1.5598144713
 H        -10.6082782510        4.7992459134        1.5986651726
 H        -10.2878469289        6.8777487782        0.3074147874
 H         -8.2374468945        7.1832671410       -1.0316280916
 H         -6.5264562380        5.4216940391       -1.0881274438
 H         -4.9282161082        4.4313603593        0.3543812337
 H         -3.1684341437        2.7191418267        0.2926899032
 H         -2.2272361850       -1.2658908794       -1.6329710020
 H          0.2282943998       -1.2751680250       -1.5986192546
 H          2.0914319476       -2.0931932339       -0.3827700525
 H          4.5570809280       -1.9949869812       -0.4369655753
 H          6.3570873401        2.1970898648       -0.3669706267
 H         10.7319185448        1.4103113891        0.5869886040
 H         12.2601972306        3.3260902720        0.2314374556
 H         11.4919648325        5.2837320394       -1.0607652053
 H          9.2155060161        5.3150635024       -2.0058405105
 H          7.7073304216        3.4146022589       -1.6610617650
 H          6.9312449451       -3.4038405883        0.8801656846
 H          8.0578117223       -5.5812620735        1.2430606049
 H         10.4997483813       -5.7609934267        0.9582179202
 H         11.8152374241       -3.7795570075        0.3093512234
 H         10.6761861317       -1.6095724372       -0.0576040793
 H          4.4136705210        2.1190835376        0.6891645888
 H          1.9756231857        2.0353632168        0.7119029835
 H          0.1864424034        1.1273189030        1.9341602355
 H         -2.2691685814        1.1175335588        1.9101269047
 H         -9.0532185627       -3.0142143473        1.0871560027
 H        -10.8611245086       -4.6658998220        0.8836118132
