70
 energy: -127.963911362833 gnorm: 0.000023286894 xtb: 6.7.1 (edcfbbe)
O           -3.63784307693334       -5.06551774510838       -1.80865107151528
C           -3.80821767425500       -4.13292845804313       -1.04465903408686
C           -5.11906085991730       -3.86901271881212       -0.40991478660835
C           -6.19152018158581       -4.69916868016146       -0.72497323075167
C           -7.43460587778751       -4.49359056155877       -0.15491888417059
C           -7.62146845618132       -3.45234623384590        0.74249031342096
C           -6.56414619418845       -2.62208242209473        1.06559249212163
C           -5.30773539654098       -2.81740909474560        0.49663445309741
C           -4.20917114115171       -1.90538643391926        0.87563771465099
O           -4.35721186290065       -1.01019340078314        1.68520407664507
C           -2.90768820470042       -2.14523557799064        0.20781335176235
C           -1.85298738908428       -1.29498460177115        0.50400694502826
C           -0.60425926418343       -1.46793550798627       -0.08965525424005
N            0.44403097225062       -0.59430961206018        0.21026720126832
C            0.17166910056138        0.76064175680548        0.42398042742363
C            0.88604036275314        1.49167588173787        1.37780381786494
C            0.60137795444781        2.82380015644556        1.58239918481269
C           -0.39825500591530        3.46856119201131        0.85416179625337
C           -1.11573354723226        2.73945747122056       -0.10290972596948
C           -0.82420123261489        1.39961243736761       -0.31108153159657
C           -2.18755816081606        3.35730472628021       -0.91924891311208
O           -2.80245330981214        2.72197165274465       -1.75421959824703
C           -2.45955831147046        4.78511364119577       -0.65520828492386
C           -3.45796848525502        5.42154334579549       -1.38910448280798
C           -3.74582945580258        6.75726169357290       -1.17795262579621
C           -3.03601780453138        7.47626436938103       -0.22734917011310
C           -2.04243923890490        6.85579061112619        0.50766930301209
C           -1.74301864778995        5.51118332997937        0.30528147442945
C           -0.66931522386948        4.89452078016260        1.11658206991349
O           -0.04749390414486        5.52727448388928        1.95014688641958
C            1.75395507763959       -1.06647701299215        0.29023052212818
C            2.02370462515352       -2.34391269058566        0.79337189367403
C            3.32159801585432       -2.79766346566060        0.86987204280920
C            4.39081214327340       -2.00316061711948        0.45504111925151
C            4.12554671338826       -0.72248524965436       -0.04777024534807
C            2.81763823535811       -0.26851202398241       -0.12817857877122
C            5.20874969447067        0.17839460279342       -0.50880677258288
O            4.97422817696426        1.28995310788885       -0.94279745063063
C            6.58236636048103       -0.35418177212528       -0.40233950796632
C            7.64307032018166        0.44674738301835       -0.81951697004474
C            8.94572863612050       -0.00925562379459       -0.73746518833610
C            9.20502980290405       -1.27646119274306       -0.23600333210550
C            8.16052399566422       -2.08140481284582        0.18069856546506
C            6.84422826386815       -1.63424126867551        0.10380080057132
C            5.76162599268636       -2.53496342875213        0.55976208538248
O            5.99040202374172       -3.64974296615927        0.99310399796055
C           -0.42189268985251       -2.52181651266906       -0.99055844581544
C           -1.46698037701535       -3.37039819507916       -1.28193903475338
C           -2.72103097084831       -3.19987581219689       -0.69530790505605
H           -6.02356438317496       -5.50441610086838       -1.42484873099995
H           -8.25824106834661       -5.14401192809889       -0.40872412117004
H           -8.59096519511540       -3.28959101623904        1.18903637976747
H           -6.68659553227380       -1.80594033682186        1.76225239784783
H           -2.02287243609468       -0.49899514342218        1.21434960080108
H            1.65368891698897        1.00484391088069        1.96050292814248
H            1.14204279175631        3.39585349295673        2.32139647994724
H           -1.38435178686895        0.86690329086120       -1.06577122944868
H           -3.99770430675705        4.84253758153324       -2.12386607269388
H           -4.52239450250902        7.23909512924190       -1.75296461905725
H           -3.25815420631760        8.51967550972504       -0.06056166049580
H           -1.47736013072807        7.39661767740555        1.25241825298044
H            1.20955772617885       -2.96717324849497        1.13185860605664
H            3.54025975695949       -3.77880254943251        1.26405724139597
H            2.64324358761989        0.71707798476454       -0.53480129366009
H            7.41786075318965        1.42965451213388       -1.20631335155949
H            9.75932433941713        0.62125705102569       -1.06343667618561
H           10.22126380974003       -1.63535034460961       -0.17069100031665
H            8.33971695144231       -3.07129615450726        0.57370612600990
H            0.53797677379736       -2.65850309668245       -1.46588204925977
H           -1.33939838138379       -4.18185415082435       -1.98273771811026
