70
 energy: -127.963911388429 gnorm: 0.000037837953 xtb: 6.7.1 (edcfbbe)
O           -3.57579307156661       -5.13244714178162       -1.71087247773692
C           -3.75665613216283       -4.19171797789356       -0.95938422260855
C           -5.06660979297291       -3.94225047750915       -0.31694665938706
C           -6.12614700391635       -4.79687216450647       -0.60952123969080
C           -7.36782618541187       -4.60547684141424       -0.03150626404065
C           -7.56623184338640       -3.55407108267885        0.85146277549891
C           -6.52181179173866       -2.69941638556186        1.15212501552027
C           -5.26700519827209       -2.88030262716272        0.57491572278219
C           -4.18250866007653       -1.94208302718457        0.92959999268850
O           -4.34046593594475       -1.03649707619792        1.72563111107014
C           -2.88241550325466       -2.16878297685905        0.25456355174805
C           -1.84124178955984       -1.29470852900532        0.52821137123399
C           -0.59463942263840       -1.45364280411339       -0.07378622535181
N            0.43871835880377       -0.55479248094690        0.20281893852845
C            0.13936026732759        0.79772247666696        0.39579959537132
C            0.84196739449153        1.55926443247318        1.33427270886089
C            0.52846416544181        2.88778901416552        1.51957645056620
C           -0.48877947996177        3.49862802743889        0.78648977277334
C           -1.19363270876428        2.73912715195360       -0.15621258385931
C           -0.87329304748631        1.40300387423574       -0.34479071491307
C           -2.28209088784816        3.32022101303729       -0.97749456438569
O           -2.88511085993552        2.65875980132250       -1.80076390851111
C           -2.58592371704303        4.74509089293990       -0.73318805463338
C           -3.60149113537258        5.34753431797299       -1.47220223646102
C           -3.91976739411752        6.67903696055777       -1.27885964349974
C           -3.22370646520159        7.42780597424006       -0.34115246684669
C           -2.21314566790075        6.84127618906884        0.39857512561056
C           -1.88293732822790        5.50132282715246        0.21395840621853
C           -0.79170630325036        4.92170020752547        1.02920930216454
O           -0.18129154906023        5.58084272391309        1.85065017092253
C            1.75839542181084       -0.99875808773029        0.28011828108498
C            2.05778876532580       -2.26383652156214        0.79763339605483
C            3.36512478260366       -2.69024102510514        0.87015205001855
C            4.41502874594602       -1.87956429703678        0.43765460638926
C            4.12021783484288       -0.61066971267037       -0.07839834750230
C            2.80277689016601       -0.18453618481582       -0.15539096539366
C            5.18172717275132        0.30677811182216       -0.55687608202933
O            4.92170608256001        1.40832029759125       -1.00176337563902
C            6.56666145900393       -0.19629784298557       -0.45341403836759
C            7.60808946298154        0.62168889619601       -0.88579416764227
C            8.92030316948836        0.19324152848056       -0.80756268743611
C            9.20864298399800       -1.06320782022245       -0.29501204989870
C            8.18350097043845       -1.88482002751472        0.13696940582257
C            6.85790189767280       -1.46527731740909        0.06443255767654
C            5.79692717407344       -2.38268866685287        0.53765959993912
O            6.05121947406396       -3.48805167243524        0.98082617148301
C           -0.40017854830725       -2.51809544983383       -0.95954462256979
C           -1.43175328496919       -3.39037965971304       -1.22842226550362
C           -2.68381794186964       -3.23380386284619       -0.63370234736202
H           -5.94933642641327       -5.60970893502381       -1.29835668650664
H           -8.18137627019946       -5.27490470349658       -0.26781639388944
H           -8.53466563411313       -3.40234181120428        1.30415517550436
H           -6.65334605566395       -1.87490062481337        1.83716812918940
H           -2.01992743952346       -0.49084451251617        1.22744131755710
H            1.62294582292667        1.09873499359266        1.92063056090784
H            1.05941871921530        3.48317188433519        2.24710094217513
H           -1.42471512092308        0.84616072266269       -1.08841096585127
H           -4.13012231161453        4.74566843217143       -2.19659470681098
H           -4.70937431312299        7.13439687796982       -1.85767161273924
H           -3.46977895351896        8.46794523252226       -0.18809852314284
H           -1.65826098084042        7.40570875858349        1.13340475738083
H            1.25901457627217       -2.89907942698161        1.15016228868843
H            3.60645154833004       -3.66179171608536        1.27472211635906
H            2.60562367001427        0.79214487861063       -0.57294253182610
H            7.36037641093333        1.59569265448715       -1.28125960572399
H            9.71875300280797        0.83683345722133       -1.14522044006911
H           10.23238687023848       -1.40066749361960       -0.23283539596781
H            8.38539993529793       -2.86669803585518        0.53897503864834
H            0.55798264452855       -2.64442729339179       -1.44113998659354
H           -1.29502366695273       -4.21023835893672       -1.91762667205318
