70
 energy: -127.908144976161 gnorm: 0.000178111739 xtb: 6.7.1 (edcfbbe)
O           -3.49982955326744       -5.09462659552204       -1.82484863501272
C           -3.68302369302000       -4.18256407565368       -1.01498184824983
C           -4.95325206247942       -3.99081988822743       -0.31662609310421
C           -6.00376167157952       -4.87214633376708       -0.60477009621852
C           -7.22462025543849       -4.72691913424283        0.01027288294343
C           -7.42659608752247       -3.69997781075012        0.93215581537213
C           -6.40643640363658       -2.82794821565465        1.22877841197999
C           -5.15370748386443       -2.96257097384936        0.61410390471164
C           -4.10577723819827       -2.01480591170890        0.98160691456532
O           -4.26893926959896       -1.12614429729788        1.81816270506540
C           -2.83950737882743       -2.19897315904422        0.27261329333336
C           -1.80583851031021       -1.30178607581890        0.53621479425828
C           -0.57891961516149       -1.42608232673094       -0.09626058628386
N            0.44176922087280       -0.51370783252749        0.17759905113761
C            0.12642461015054        0.83157791089338        0.36845500140489
C            0.82409608630227        1.60668176024443        1.30385005708489
C            0.48784373696231        2.92805397818333        1.48936431079584
C           -0.54855901536816        3.51868420138982        0.76413283808644
C           -1.24126207813322        2.74875662934353       -0.18081611405666
C           -0.90042825442644        1.41804719013624       -0.36913175117327
C           -2.33899170909122        3.31359248740456       -1.00136148532995
O           -2.91853543401221        2.64629354077016       -1.83819214118278
C           -2.67836336400033        4.72433263215842       -0.73780224745888
C           -3.71655736240376        5.30691170340881       -1.46275527332061
C           -4.06894061719603        6.62664846914120       -1.25353139855902
C           -3.38553381653263        7.38550408100306       -0.31343067561897
C           -2.35386315064504        6.82018966138903        0.41209772818320
C           -1.98869936886386        5.49051539678465        0.21244950248479
C           -0.88078568734880        4.93406101208408        1.01580417857336
O           -0.27532893115368        5.60058725825231        1.83679426404417
C            1.75873410064706       -0.95301674141058        0.27013264163369
C            2.05176813659765       -2.23259686290865        0.76410175528953
C            3.35689657161802       -2.66026983839297        0.83672472030623
C            4.41153673457409       -1.83903449854467        0.43178063183784
C            4.12210358374263       -0.56159937811138       -0.06968157469596
C            2.80566925602657       -0.13182412554054       -0.14589399333318
C            5.18688542772112        0.35820779699277       -0.53379800536268
O            4.92736295945068        1.46548791573087       -0.97063810901217
C            6.56598258442444       -0.14996127045394       -0.42877174997621
C            7.61265729351212        0.67028588258332       -0.84789000872035
C            8.92243412568356        0.23796748547901       -0.76944932416375
C            9.20637944977244       -1.02520480643352       -0.26790934311902
C            8.17873295184008       -1.84834916640454        0.15132902409964
C            6.85278947474675       -1.42582762905690        0.07789230495642
C            5.79235617443275       -2.34339831076593        0.53962882112116
O            6.03898148685969       -3.45395408259059        0.97957360297317
C           -0.37024980449907       -2.48670631224852       -1.00244450538356
C           -1.37875662400748       -3.37329151645277       -1.26069066388574
C           -2.64168081185252       -3.23222244905961       -0.66008522800305
H           -5.82060854902793       -5.65581523924229       -1.32483988076038
H           -8.02816913576391       -5.40940476550574       -0.22290313244647
H           -8.38534586998144       -3.58966076410468        1.41646767904152
H           -6.53411152761358       -2.02496458228971        1.93950594251447
H           -1.98137673246895       -0.51856581071705        1.25914035276438
H            1.60995758374506        1.15664945792634        1.89166873101668
H            1.00915986500694        3.53487614189160        2.21448575070138
H           -1.44171264176914        0.85153554029510       -1.11291735235717
H           -4.23408996318355        4.69787549003889       -2.18911218378108
H           -4.87502875756793        7.06620329353686       -1.82167578498347
H           -3.65895043385308        8.41687178039131       -0.14817587419145
H           -1.80868738683249        7.39198820100802        1.14845884593233
H            1.24907058640896       -2.86796549261120        1.10683084140851
H            3.59792878822524       -3.63868901337544        1.22471719121699
H            2.61151539040168        0.84819615575273       -0.55722945021395
H            7.36826207138971        1.64873810647349       -1.23427902282089
H            9.72381489596293        0.88247637885057       -1.09829489438530
H           10.22930849006022       -1.36498853583437       -0.20513766557208
H            8.37641025439868       -2.83445846509654        0.54493451886492
H            0.57867180740648       -2.57154407688594       -1.51006138571663
H           -1.25136061983584       -4.18320866681792       -1.96367785903765
