94
 energy: -148.373643649417 gnorm: 0.000156129390 xtb: 6.7.1 (edcfbbe)
C            6.97747951772931        0.27442294605215        1.80987736844497
C            6.17030453331912        0.09639017486326        0.50989151291299
C            6.80346503156600        0.91937336097606       -0.62780983764516
C            6.19513630765436       -1.36897057087858        0.11784936746473
C            7.41150544233947       -1.97898062376770       -0.16029280093880
C            7.49864592472475       -3.30172323114863       -0.55295882459262
C            6.33836623216149       -4.04193496682988       -0.69236171058321
C            5.11705843818876       -3.46175008257220       -0.41895345945849
C            5.02927805434754       -2.13331245113021        0.00713578183229
N            3.78544245384506       -1.58094105547621        0.29273360285843
C            2.62383745433512       -2.37538931781625        0.14551836457390
C            2.32607931839405       -3.37987756892565        1.06377865932975
C            1.17913449710947       -4.14361055665165        0.92212911389165
C            0.30234234380652       -3.89612579360041       -0.12280417265861
C            0.60590916477540       -2.89679726778882       -1.02779467493485
S           -0.56677780754023       -2.48469593123166       -2.32165098682835
O            0.14374016873920       -1.86687082925804       -3.41952864740646
O           -1.37682148038170       -3.64232374361434       -2.62627842353337
C           -1.60360268772525       -1.23663233080437       -1.54534303674615
C           -2.92420914758946       -1.52105080546086       -1.27623466828566
C           -3.71443512640956       -0.54554188801049       -0.66392914075842
N           -5.05521347580426       -0.80282732389806       -0.38133370951674
C           -6.12712535553302        0.01902446072094       -0.69144164936817
C           -6.14865038615038        1.23171631781339       -1.36473295318812
C           -7.37578886305098        1.83520355526711       -1.56980704511430
C           -8.55863715582126        1.24795317214650       -1.12704978939739
C           -8.54559547112989        0.02775235938183       -0.48032050319826
C           -7.32437593292376       -0.59723086076043       -0.26322308458346
C           -6.95110748419997       -1.84890642985179        0.33773315981401
C           -7.67340969222323       -2.86575614169866        0.94905101613852
C           -6.98691543937534       -3.95018563769361        1.45903367968209
C           -5.59799904255998       -4.02036768787260        1.37874693743663
C           -4.85832436303461       -3.02010076275081        0.77525111876300
C           -5.54508407425933       -1.94183761548283        0.23687655670455
C           -3.15566021463550        0.69034858120055       -0.34743616867771
C           -1.81693994415339        0.96064626938502       -0.62603989541984
N           -1.26444120851001        2.19790766943608       -0.30180164544834
C           -1.40762399099813        2.86294244108501        0.90632524119459
C           -2.05073077402394        2.46282498378144        2.06883166039873
C           -2.00632281728297        3.31382212418439        3.15814307992711
C           -1.33293072062703        4.53173756802827        3.10361280537064
C           -0.66716281929877        4.92251522385262        1.95839459728803
C           -0.69662352787319        4.08301667596074        0.85226033978531
C           -0.09906153348077        4.15381499115081       -0.45334838055408
C            0.69185907261719        5.10400050248556       -1.08584555616870
C            1.09935639932974        4.86679024279038       -2.38358485232797
C            0.71197759253961        3.70894075392424       -3.05384783000633
C           -0.07670444601300        2.75003625376756       -2.44487891693689
C           -0.46452641254151        2.96962995470996       -1.13117066865168
C           -1.02990068061387       -0.02401889160739       -1.22476488379884
C            1.75486077274123       -2.14187891569631       -0.91692766515213
C            3.64211757834940       -0.24424516720214        0.65050838395088
C            2.37486988671603        0.26230302567027        0.95624658953767
C            2.20279787047550        1.58319270449124        1.31475492498139
C            3.29736180765440        2.42556728299267        1.38220486293116
C            4.55464928182063        1.92052775344700        1.10882299977795
C            4.75720207263132        0.59398986166206        0.74991678173090
H            6.52257769216153       -0.30548826781871        2.61115878294177
H            8.00093209802348       -0.06557530729663        1.67903709541936
H            7.00012947306316        1.31776525150226        2.11178467044634
H            6.80540284681772        1.97842047258697       -0.38630669310447
H            7.82953497792076        0.61055087158996       -0.80579639899077
H            6.23791958948632        0.77808161852601       -1.54745491117150
H            8.32302145879175       -1.40782224778080       -0.07189840494785
H            8.46145468151169       -3.74485992951032       -0.75823731435587
H            6.37918309794103       -5.07137146432035       -1.01677221323262
H            4.21733640358061       -4.04361006054358       -0.54692807045306
H            3.00419913251602       -3.55861709902614        1.88474221845593
H            0.96260612390435       -4.92496339091342        1.63386705731081
H           -0.59897005092129       -4.47124230804489       -0.26115759123642
H           -3.32814147235136       -2.47647916744279       -1.56908990810095
H           -5.24279032136629        1.68780767890768       -1.73386255068261
H           -7.41707496664738        2.78144632471297       -2.08900591312982
H           -9.49727749161034        1.75190932843355       -1.30376150924979
H           -9.46353729500434       -0.43759918318875       -0.15456390237589
H           -8.74824376664634       -2.80289632473092        1.02668764195059
H           -7.52973096808633       -4.75310931499925        1.93545952440761
H           -5.08677670401932       -4.87316738131044        1.80063383158639
H           -3.78146711381961       -3.07683525999989        0.73388604322027
H           -3.76824394401456        1.44855023244195        0.11510097504028
H           -2.55681385086065        1.51203504325154        2.13537618236544
H           -2.50232947183380        3.02413992848099        4.07274305579908
H           -1.32417852351054        5.17019038341650        3.97452898106754
H           -0.12733894746993        5.85652465368079        1.92120098765629
H            0.97635605552270        6.00934196934538       -0.57138866291186
H            1.71836221058534        5.58997771306853       -2.89360442934461
H            1.03057903906687        3.55596089225692       -4.07462991522913
H           -0.38199757530093        1.86708086548354       -2.98607546818253
H            0.01126491236897        0.15303680259357       -1.43438143901667
H            1.97341764074042       -1.38886484297648       -1.65814642738596
H            1.51483197500245       -0.38898733761454        0.92331400776832
H            1.21519494173165        1.95124323203830        1.54792990128067
H            3.17555753743909        3.46152486185347        1.65876537303662
H            5.40297943295871        2.58339200161050        1.18471346839597
