94
 energy: -148.268181603340 gnorm: 0.000050346276 xtb: 6.7.1 (edcfbbe)
C            4.88892198253388        2.41739512087842       -0.28964947341895
C            4.59131610631072        2.13687320236462        1.19868046252269
C            5.17568008138225        3.28502742615611        2.02243036090788
C            3.09239548980627        1.99066775965546        1.39054088406110
C            2.27828597978487        2.92775088480324        2.00637663215618
C            0.91989237360283        2.70101489305383        2.15752916307278
C            0.35267859337400        1.52267850348363        1.69976301046564
C            1.14026720045414        0.57849286483026        1.07249844225891
C            2.50236391957859        0.81489564835756        0.90636604682153
N            3.34509460216875       -0.16679364796499        0.35845824050292
C            3.08305146418949       -0.78923629895787       -0.84593597904464
C            3.90796747121011       -1.82549155624672       -1.34351334152168
C            3.58232460943004       -2.47161389727846       -2.52745804679077
C            2.48043398999749       -2.09235883090497       -3.26778687672167
C            1.73825362984383       -0.98813271864952       -2.84555401156617
S            0.26991606383002       -0.49416657914251       -3.72862966920472
O            0.46562105507795        0.83963500374955       -4.27766177366221
O           -0.03900983573249       -1.54563415464820       -4.68447218381777
C           -0.95967261578764       -0.39716410236798       -2.47282581641855
C           -1.25976742324365       -1.55142381203740       -1.73580402262210
C           -1.98419974973453       -1.44381281620064       -0.56510011354087
N           -2.23283760546844       -2.58850177329473        0.20376877935130
C           -3.44792135411256       -2.98424522344531        0.72442086654068
C           -4.70085093717980       -2.40658320944859        0.58185988227902
C           -5.77615391603470       -3.02615173321067        1.19540902996768
C           -5.61246072404559       -4.20001654780963        1.92740928111623
C           -4.37008877130790       -4.79681486792134        2.05282571641687
C           -3.27731303408638       -4.19285582244170        1.44506927766930
C           -1.88591236752832       -4.53358244816894        1.34551526584522
C           -1.12001466342907       -5.58277981554780        1.83662163563939
C            0.23555583695053       -5.59916092625086        1.55944397048042
C            0.83087141275006       -4.58110122864159        0.81802457866831
C            0.08814187804629       -3.52471859409692        0.31764801567427
C           -1.27711007455525       -3.51631419671217        0.56824494204298
C           -2.42966859836756       -0.18691745491099       -0.10971755850909
C           -2.12419574015271        0.96435975901602       -0.86221193199709
N           -2.55204933109202        2.21891726701211       -0.41286942324976
C           -1.77208701140968        3.35718646921657       -0.33291917235784
C           -0.43266608761371        3.54194882412345       -0.64457104072894
C            0.11186998386842        4.80133408283144       -0.45065823778146
C           -0.65004461341950        5.85130683836005        0.05410441908676
C           -1.98103959267774        5.67046324297079        0.38855931164148
C           -2.54954460571255        4.41796938706855        0.19811723000251
C           -3.86273077145652        3.88736044028625        0.43108501939987
C           -5.04720979541159        4.43699193247291        0.90430801224554
C           -6.17395694512673        3.63515425391513        0.96186805049633
C           -6.13480884785819        2.30860055984066        0.53895988600285
C           -4.96368742679172        1.73984133748390        0.06654376521244
C           -3.82245113231423        2.52747385450211        0.03366781619289
C           -1.38339525139321        0.86153582974361       -2.02402953718261
C            2.02710722493781       -0.35126807497628       -1.64736535974499
C            4.51323661326685       -0.35566888132381        1.11946492261932
C            4.93314102951959       -1.62331225727194        1.51295665467896
C            6.06942256046054       -1.76387536789909        2.28644628460700
C            6.77354572671115       -0.64112805885910        2.68756798293564
C            6.31836885099246        0.62393737503529        2.35034392845030
C            5.18028532526117        0.79011485243170        1.57820038372809
H            5.96441540990177        2.45766641200138       -0.44793971357673
H            4.47666190460049        1.64960758677845       -0.93902235405645
H            4.45876901974025        3.37365574176802       -0.57828205479792
H            5.00050094453330        3.13194156829729        3.08461624939697
H            6.24457924390915        3.36623185224556        1.84448472502567
H            4.72566962528748        4.22650135511209        1.71918442623867
H            2.69498596616230        3.84784208299438        2.38049674542954
H            0.30481869728320        3.44187077374717        2.64425211996255
H           -0.69946679618927        1.33197973167344        1.83989036769508
H            0.71219995618876       -0.35312793224170        0.73487526776118
H            4.80338340937461       -2.10986890856947       -0.82027940395478
H            4.20807697656215       -3.28040254704376       -2.87347381479839
H            2.19342385784540       -2.58910287212501       -4.18042174566488
H           -0.93719872133987       -2.50690751584744       -2.11797213887292
H           -4.83625368794158       -1.51202880835054       -0.00449448086677
H           -6.76066448006933       -2.59343681833188        1.09954894274105
H           -6.47348873631023       -4.65482810460390        2.39442339614771
H           -4.25079354416571       -5.71565884116885        2.60639264582630
H           -1.57536283232613       -6.36687531552993        2.42197801439249
H            0.84686525551182       -6.40924370398809        1.92862502294334
H            1.89199005470477       -4.61877360924256        0.62511618041613
H            0.55871797916696       -2.73721185786030       -0.25220774581367
H           -2.94361129598646       -0.10472803156136        0.83290800638900
H            0.17167827948638        2.73633155166636       -1.02955391784773
H            1.14877896600421        4.96850376088863       -0.69823258681990
H           -0.19160758695437        6.81961627957579        0.18990161637904
H           -2.56843687454136        6.48323401029963        0.78745725618606
H           -5.08725985126077        5.47070552349281        1.21184551282467
H           -7.10381673207356        4.04524231217028        1.32708188846753
H           -7.03479508661151        1.71326962388264        0.57336954751894
H           -4.94592621096429        0.72173014798107       -0.28737707768098
H           -1.15334300117108        1.71913135199447       -2.63489266962856
H            1.42471648647380        0.49795970870616       -1.36781156163878
H            4.34622966813225       -2.48820135259812        1.24749236520351
H            6.39378949723218       -2.74828457508383        2.58762997811129
H            7.66486930575518       -0.74637132033350        3.28705473062739
H            6.86431372275407        1.48290231600836        2.70321933783563
