  94
       -148.32022538
 C          4.4351511854        2.3196183155       -0.4485738878
 C          4.2313456797        2.1226091542        1.0672694068
 C          4.7486045698        3.3699399394        1.7816488482
 C          2.7578351759        1.8715654796        1.3322122624
 C          1.8952527712        2.7799193016        1.9246535250
 C          0.5634285083        2.4620611119        2.1304968058
 C          0.0777350442        1.2218311718        1.7569605454
 C          0.9213303376        0.2993906954        1.1680401890
 C          2.2527735872        0.6272149003        0.9461563323
 N          3.1534246255       -0.3305278982        0.4341922277
 C          2.9754428417       -0.9278719442       -0.7928049417
 C          3.8596802083       -1.8912231202       -1.3004749596
 C          3.6474011503       -2.4756769014       -2.5334223824
 C          2.5604894342       -2.1171570749       -3.3174484269
 C          1.7268719551       -1.1245430487       -2.8451421882
 S          0.3209595793       -0.5569173559       -3.8192381102
 O          0.6034094623        0.7540008398       -4.3567134194
 O         -0.0629450940       -1.5856144447       -4.7551631445
 C         -0.9102583064       -0.3942626404       -2.5161003119
 C         -1.2119532377       -1.5371201910       -1.8081492376
 C         -1.9534975486       -1.4249123507       -0.6340139004
 N         -2.1656587811       -2.5522763097        0.1575205758
 C         -3.3502110256       -2.9318701650        0.7586250691
 C         -4.6136747233       -2.3702099492        0.6535887408
 C         -5.6484264115       -2.9730239105        1.3431474648
 C         -5.4395443401       -4.1146992503        2.1129562249
 C         -4.1888982925       -4.6933125487        2.2009739066
 C         -3.1336367544       -4.1035868392        1.5179962742
 C         -1.7428024347       -4.4350574326        1.3712194259
 C         -0.9443865745       -5.4451270892        1.8914886219
 C          0.3978751854       -5.4610102690        1.5679308143
 C          0.9463183789       -4.4794083844        0.7462113284
 C          0.1718966941       -3.4663244845        0.2128287914
 C         -1.1820948188       -3.4571369480        0.5185857587
 C         -2.3915191804       -0.1719599725       -0.2138650621
 C         -2.0855509628        0.9711011227       -0.9488579343
 N         -2.4517712815        2.2281894858       -0.4763093555
 C         -1.6116255383        3.3255820519       -0.3785269403
 C         -0.2791298132        3.4645267292       -0.7380554226
 C          0.3349771621        4.6767030072       -0.4874131616
 C         -0.3468180220        5.7307338929        0.1146335476
 C         -1.6666763959        5.5924650249        0.4945084519
 C         -2.3051284931        4.3835612381        0.2515591308
 C         -3.6291334226        3.9008789699        0.5327486597
 C         -4.7535068645        4.4787745608        1.1069970039
 C         -5.9067794590        3.7259502496        1.2065497351
 C         -5.9528525269        2.4207531582        0.7232797390
 C         -4.8462353729        1.8266520355        0.1465905666
 C         -3.6751234634        2.5661655205        0.0722941853
 C         -1.3346362840        0.8536305307       -2.1190883248
 C          1.9172157540       -0.5280707674       -1.6192986477
 C          4.3670915552       -0.3636314887        1.1523341537
 C          4.9169665866       -1.5621990215        1.5873541250
 C          6.0952734876       -1.5580785916        2.3114622902
 C          6.7045370370       -0.3569874203        2.6257443239
 C          6.1232319624        0.8406145653        2.2429222333
 C          4.9493836723        0.8583043795        1.5067166938
 H          5.4912444863        2.4705938237       -0.6627194331
 H          4.0896229635        1.4628718412       -1.0178309906
 H          3.8837559782        3.1964746111       -0.7819152598
 H          4.6314981848        3.2803783203        2.8590810006
 H          5.7988728932        3.5270003038        1.5499169290
 H          4.2065593928        4.2471383915        1.4378901968
 H          2.2489297896        3.7499042477        2.2315982302
 H         -0.0943382548        3.1856905430        2.5870214426
 H         -0.9543301539        0.9665500846        1.9390045016
 H          0.5592852711       -0.6800619676        0.8965236231
 H          4.7345041104       -2.1664315670       -0.7363847788
 H          4.3415312904       -3.2215144342       -2.8895894703
 H          2.3619010178       -2.5707171923       -4.2735373496
 H         -0.8656960071       -2.4919670491       -2.1650038904
 H         -4.7909264999       -1.5018995387        0.0383652267
 H         -6.6410592039       -2.5530273721        1.2778184970
 H         -6.2737899461       -4.5575215397        2.6362694893
 H         -4.0312416599       -5.5892508412        2.7818637992
 H         -1.3678885952       -6.1964385536        2.5397070491
 H          1.0355382655       -6.2385486806        1.9603276433
 H          2.0011559520       -4.5075304921        0.5149450986
 H          0.6198115488       -2.7146465717       -0.4174421520
 H         -2.9216096303       -0.0821655674        0.7212143280
 H          0.2763757628        2.6576144276       -1.1860002232
 H          1.3705105151        4.8066394987       -0.7647858254
 H          0.1680005915        6.6633387472        0.2903691375
 H         -2.1947405951        6.4022972426        0.9744136335
 H         -4.7238155667        5.4979336710        1.4607489646
 H         -6.7912976298        4.1548755171        1.6521874674
 H         -6.8739915948        1.8620116585        0.7946695337
 H         -4.9031205113        0.8259528165       -0.2521817111
 H         -1.0695770029        1.7109600701       -2.7131946605
 H          1.2573213551        0.2659916416       -1.3126500509
 H          4.4061260319       -2.4909409989        1.3840583885
 H          6.5262272656       -2.4910955824        2.6411295463
 H          7.6254171921       -0.3479063543        3.1884871349
 H          6.6020397596        1.7635637558        2.5263012267
