  69
  -111.641640577700       0.283763334028705      !
 N        -11.8901901518        0.0441589928        0.2006734731
 C        -10.7443247768        0.0350370152        0.1601839922
 C         -9.3320096491        0.0234652476        0.1147269934
 C         -8.6607820793       -1.0605991661       -0.4529516314
 C         -7.2816807937       -1.0681118044       -0.4907141865
 C         -6.5504422135       -0.0012033027        0.0285347126
 C         -5.0741099761       -0.0150844036       -0.0159680327
 C         -4.3943519191        0.8850370594       -0.8494678442
 C         -5.0825620070        1.7976322831       -1.6918753185
 C         -4.4067652160        2.6609280528       -2.4980423903
 C         -2.9976497208        2.6603137045       -2.5217202328
 C         -2.2995383591        1.7907102716       -1.7423612193
 C         -2.9652889031        0.8771668343       -0.8833724276
 C         -2.2550053172       -0.0349757135       -0.0928858323
 C         -0.7755065298       -0.0331423563       -0.1164466537
 C         -0.0681380146        0.9212167594        0.6096558529
 C          1.3114532251        0.9210258029        0.6106955143
 C          2.0101770590       -0.0349260043       -0.1265764890
 C          3.4541720425       -0.0572965381       -0.1278601750
 N          4.2062087608       -0.8578603262       -0.8270270684
 C          5.4877156233       -0.5227596394       -0.4974556519
 C          6.7262511537       -1.0590454536       -0.9488331428
 C          6.7753748343       -2.0923012478       -1.8893297776
 C          7.9837707939       -2.5923960889       -2.3067807201
 C          9.1613023776       -2.0620834666       -1.7839772168
 C          9.1252027627       -1.0447744697       -0.8591196249
 C          7.9116518573       -0.5040804031       -0.4072640696
 C          7.8516567366        0.5713985538        0.5681524059
 C          8.9986578134        1.1464695509        1.1342316375
 C          8.9183002131        2.1626343073        2.0579184545
 C          7.6822311089        2.6600174294        2.4658989718
 C          6.5336477826        2.1275823979        1.9372207659
 C          6.6031145337        1.0925138735        0.9962763521
 C          5.4469259911        0.5078397504        0.4276580935
 O          4.1482409952        0.8061332475        0.6607303512
 C          1.3043319367       -0.9859834352       -0.8649679215
 C         -0.0745378686       -0.9846944163       -0.8539870353
 C         -2.9339888182       -0.9409481458        0.7319310704
 C         -2.2360778078       -1.8667706700        1.5513688775
 C         -2.9031721666       -2.7252919291        2.3691061714
 C         -4.3110544754       -2.7015311336        2.4266313922
 C         -5.0170340081       -1.8279452089        1.6583259735
 C         -4.3627321314       -0.9274994825        0.7767487521
 C         -7.2290775163        1.0782629176        0.5913835244
 C         -8.6078087287        1.0952248230        0.6390483200
 H         -9.2269568813       -1.8859215823       -0.8591241064
 H         -6.7570268111       -1.9030552281       -0.9318153857
 H         -6.1625281594        1.7917245924       -1.6899080241
 H         -4.9459886776        3.3487873622       -3.1324859081
 H         -2.4792546369        3.3495120608       -3.1716786057
 H         -1.2199522178        1.7756707207       -1.7697640559
 H         -0.6117280752        1.6607768058        1.1796572809
 H          1.8576083585        1.6578543092        1.1798108360
 H          5.8412163691       -2.4756925287       -2.2693520177
 H          8.0263470059       -3.3899150821       -3.0334626638
 H         10.1143353278       -2.4534450192       -2.1088809649
 H         10.0610472315       -0.6642421230       -0.4823821242
 H          9.9762867720        0.7931689690        0.8487970722
 H          9.8241252967        2.5797844884        2.4725529505
 H          7.6325468624        3.4569755332        3.1925871775
 H          5.5608760628        2.4907785676        2.2336343897
 H          1.8598292675       -1.7153560561       -1.4323758022
 H         -0.6239691720       -1.7231020656       -1.4195539204
 H         -1.1567401950       -1.8720989895        1.5159585390
 H         -2.3600578287       -3.4244475378        2.9874653228
 H         -4.8245840367       -3.3792602106        3.0924799460
 H         -6.0951553864       -1.8042393336        1.7173875440
 H         -6.6635878604        1.9034156902        0.9992592491
 H         -9.1330872705        1.9305631827        1.0783860301
  69
  -111.641365978400       0.212206741902509      !
 N        -11.8900470363       -0.0032627127       -0.1888989863
 C        -10.7439887460       -0.0063572750       -0.1499300804
 C         -9.3314688178       -0.0063582874       -0.1031927292
 C         -8.6087712587       -0.9415233823       -0.8453665533
 C         -7.2300276800       -0.9369122024       -0.7946478823
 C         -6.5508822379       -0.0039759107       -0.0132933397
 C         -5.0733940277       -0.0046094061        0.0272545045
 C         -4.3595888848        1.0125028074       -0.6212730488
 C         -5.0177034295        2.0501582641       -1.3328595305
 C         -4.3140906430        3.0180073520       -1.9803745768
 C         -2.9053747871        2.9977747829       -1.9716126587
 C         -2.2362698853        2.0148989424       -1.3098360429
 C         -2.9301022431        0.9978732637       -0.6026012124
 C         -2.2520756717       -0.0270942780        0.0742865876
 C         -0.7757053525       -0.0483948337        0.0804703864
 C         -0.0531853553        0.9383595600        0.7479356082
 C          1.3264548256        0.9279162967        0.7383119985
 C          2.0126106638       -0.0752640954        0.0539106112
 C          3.4554675935       -0.0972953233        0.0112214702
 N          4.1836595677       -1.0046727560       -0.5739304493
 C          5.4745755471       -0.6122332812       -0.3709581609
 C          6.6953754822       -1.2139020597       -0.7863624252
 C          6.7098744872       -2.4042359279       -1.5195275132
 C          7.9016864809       -2.9623078167       -1.9103866538
 C          9.0967771794       -2.3315756856       -1.5704358736
 C          9.0944628721       -1.1606031043       -0.8488213664
 C          7.8986524282       -0.5577283536       -0.4291180529
 C          7.8727562160        0.6789809631        0.3336957858
 C          9.0388640438        1.3628675367        0.7069361398
 C          8.9922178010        2.5334335589        1.4281560411
 C          7.7723052621        3.0840526812        1.8160305637
 C          6.6058604819        2.4481075543        1.4729285809
 C          6.6407878730        1.2559505506        0.7386703786
 C          5.4652929728        0.5659393589        0.3583609508
 O          4.1753081780        0.8928410562        0.6034355216
 C          1.2932420611       -1.0703699420       -0.6102313704
 C         -0.0846160747       -1.0545909110       -0.5936831849
 C         -2.9683524359       -1.0377306289        0.7324746531
 C         -2.3138787655       -2.0673505465        1.4587673891
 C         -3.0203294487       -3.0390244251        2.0980458747
 C         -4.4289082969       -3.0343615963        2.0636654911
 C         -5.0955353752       -2.0549946680        1.3945042824
 C         -4.3976123482       -1.0289197132        0.7044299799
 C         -7.2799266131        0.9268806698        0.7236902919
 C         -8.6593096877        0.9288773059        0.6851975913
 H         -9.1349004586       -1.6618184006       -1.4544028801
 H         -6.6645506926       -1.6568434309       -1.3679978460
 H         -6.0973787101        2.0555345307       -1.3588187709
 H         -4.8294474825        3.8013805276       -2.5161811186
 H         -2.3619989094        3.7640765654       -2.5042639121
 H         -1.1570437199        1.9905853272       -1.3222017242
 H         -0.5853490072        1.7133915798        1.2806426359
 H          1.8823547502        1.6944070868        1.2567954547
 H          5.7628283775       -2.8605178887       -1.7626332830
 H          7.9178385450       -3.8815689361       -2.4766691968
 H         10.0368479019       -2.7669567473       -1.8768673909
 H         10.0430204576       -0.7075716742       -0.6083375680
 H         10.0049063896        0.9736402919        0.4283467280
 H          9.9120996248        3.0318583894        1.6967571433
 H          7.7488917450        4.0035983001        2.3814240021
 H          5.6451361060        2.8500410455        1.7586148273
 H          1.8389445649       -1.8392275847       -1.1332202100
 H         -0.6427935933       -1.8192468376       -1.1142936821
 H         -1.2351430323       -2.0621371814        1.5028082742
 H         -2.5072476204       -3.8158854888        2.6452831318
 H         -4.9740683577       -3.8086495778        2.5829431280
 H         -6.1755020756       -2.0412770264        1.3867069356
 H         -6.7541969011        1.6478826978        1.3325691284
 H         -9.2248535520        1.6481873727        1.2588849619
  69
  -111.641293554300       0.196551048841757      !
 N        -11.8931321333        0.0893550691        0.1114334690
 C        -10.7466781463        0.0729068906        0.0902697828
 C         -9.3340431230        0.0503717575        0.0625345699
 C         -8.6622106654       -0.2077510651       -1.1332263063
 C         -7.2827679517       -0.2278755678       -1.1529891325
 C         -6.5515475949        0.0037940851        0.0109177338
 C         -5.0752540869       -0.0221627048       -0.0134403885
 C         -4.3718332795        0.9703869948       -0.7114208987
 C         -5.0370143389        2.0309152874       -1.3817629445
 C         -4.3430961005        2.9710083430       -2.0791942701
 C         -2.9374965004        2.9074303218       -2.1534506252
 C         -2.2599781997        1.9241376890       -1.5010134689
 C         -2.9428318932        0.9388331218       -0.7399508837
 C         -2.2526916772       -0.0618180430       -0.0400062334
 C         -0.7759783164       -0.0710500202       -0.0429364455
 C         -0.0666518001        0.9435781743        0.5965170890
 C          1.3127231820        0.9437491262        0.5985716891
 C          2.0123520730       -0.0759252403       -0.0469597437
 C          3.4559789479       -0.0924929055       -0.0595993371
 N          4.2033352379       -1.0104579549       -0.6025965916
 C          5.4869752795       -0.6107960849       -0.3681155973
 C          6.7218522906       -1.2214991278       -0.7251110708
 C          6.7626667524       -2.4276917259       -1.4309349709
 C          7.9676615220       -2.9977532138       -1.7591386382
 C          9.1498296498       -2.3638217023       -1.3824050704
 C          9.1217775865       -1.1763618754       -0.6888796572
 C          7.9118245421       -0.5598616534       -0.3345844488
 C          7.8595140922        0.6949089074        0.3967935384
 C          9.0115889927        1.3877212482        0.7964586665
 C          8.9391409932        2.5749283649        1.4877538114
 C          7.7061558547        3.1344388260        1.8174010274
 C          6.5527645512        2.4907247892        1.4460318252
 C          6.6140873354        1.2816500148        0.7417378539
 C          5.4529236835        0.5826573350        0.3351710731
 O          4.1556420581        0.9123078185        0.5320401529
 C          1.3063903161       -1.0943776194       -0.6896255937
 C         -0.0720707298       -1.0897197548       -0.6838835870
 C         -2.9568084194       -1.0479785680        0.6663004771
 C         -2.2881154668       -2.0578572487        1.4074099680
 C         -2.9813029077       -3.0261534231        2.0658777212
 C         -4.3893865433       -3.0474971601        2.0205737061
 C         -5.0691847927       -2.0824396335        1.3436890282
 C         -4.3865074599       -1.0384177754        0.6650295250
 C         -7.2312646936        0.2600104600        1.2007078569
 C         -8.6101602131        0.2862576280        1.2323173136
 H         -9.2281094514       -0.3911861653       -2.0348067776
 H         -6.7579671165       -0.4326364888       -2.0748166866
 H         -6.1143246544        2.0834521766       -1.3276933486
 H         -4.8647106769        3.7700347222       -2.5852182914
 H         -2.4036572083        3.6480884935       -2.7304822017
 H         -1.1828802419        1.8763061220       -1.5583457368
 H         -0.6095446951        1.7307419742        1.0997674438
 H          1.8582996730        1.7299266106        1.0981012854
 H          5.8249789449       -2.8871110714       -1.7026664562
 H          8.0039928850       -3.9298125961       -2.3030188699
 H         10.1000111350       -2.8104123992       -1.6362856876
 H         10.0610527053       -0.7217123077       -0.4173616083
 H          9.9868555855        0.9921187302        0.5634835400
 H          9.8487175774        3.0795558804        1.7787115677
 H          7.6626236662        4.0668953863        2.3600126220
 H          5.5823591081        2.8992279783        1.6859869037
 H          1.8622210922       -1.8741782584       -1.1850759647
 H         -0.6200370431       -1.8740638996       -1.1856565085
 H         -1.2090802436       -2.0436850917        1.4413497893
 H         -2.4580516917       -3.7882127349        2.6241357129
 H         -4.9240729973       -3.8353403036        2.5302100560
 H         -6.1484501804       -2.1034534114        1.3102856490
 H         -6.6659607804        0.4447024025        2.1026250089
 H         -9.1358172423        0.4873935418        2.1541965560
  69
  -111.641084248000       0.157501556562738      !
 N        -11.8501389180        0.0012089470       -0.6240550793
 C        -10.7106072465        0.0005952283       -0.4970162645
 C         -9.3058142678       -0.0025188945       -0.3427662805
 C         -8.5375651509       -0.9847450534       -0.9697620159
 C         -7.1661855389       -0.9796017559       -0.8198039000
 C         -6.5384004562       -0.0001323522       -0.0521249113
 C         -5.0669277829        0.0031864608        0.0800040082
 C         -4.3152068237        1.0042544778       -0.5519179043
 C         -4.9291894529        2.0322390748       -1.3153420465
 C         -4.1880503147        2.9863614674       -1.9411371428
 C         -2.7819035132        2.9601951292       -1.8597131327
 C         -2.1533727339        1.9821369491       -1.1527314537
 C         -2.8882950111        0.9795846852       -0.4662665309
 C         -2.2507824182       -0.0431499652        0.2522506582
 C         -0.7751511154       -0.0964522986        0.2862433103
 C         -0.0370565021        0.8740031522        0.9599152902
 C          1.3424621700        0.8511712351        0.9344451661
 C          2.0115492988       -0.1469191887        0.2261013386
 C          3.4518992146       -0.1559360485        0.1290467478
 N          4.1631324694       -1.0316808971       -0.5216172108
 C          5.4560361877       -0.6203987919       -0.3768442472
 C          6.6620888160       -1.1791952625       -0.8850324141
 C          6.6576487087       -2.3430093491       -1.6596655107
 C          7.8348253933       -2.8567218962       -2.1445283347
 C          9.0341258089       -2.2079590013       -1.8577836420
 C          9.0504028415       -1.0626584891       -1.0963217005
 C          7.8700319166       -0.5046842409       -0.5815454066
 C          7.8638358930        0.7062001760        0.2220481160
 C          9.0346830295        1.4083354615        0.5429279988
 C          9.0059517434        2.5552357200        1.3021059996
 C          7.8004742642        3.0622870943        1.7832472888
 C          6.6300560225        2.4072509666        1.4938738449
 C          6.6466995560        1.2393584621        0.7209742892
 C          5.4656603774        0.5342350619        0.3891803089
 O          4.1854288601        0.8284782979        0.7137133014
 C          1.2761952491       -1.1368098957       -0.4283376077
 C         -0.1010921669       -1.1099794012       -0.3941078410
 C         -3.0049594158       -1.0292010256        0.9039933635
 C         -2.3901645081       -2.0476300895        1.6788998072
 C         -3.1325104546       -2.9932148920        2.3165963657
 C         -4.5387453119       -2.9721388582        2.2289472707
 C         -5.1675674811       -2.0054653396        1.5065299331
 C         -4.4315382437       -1.0067755871        0.8159598886
 C         -7.3132994363        0.9750130283        0.5727085880
 C         -8.6862832051        0.9777293335        0.4337964312
 H         -9.0227398746       -1.7403056057       -1.5702128039
 H         -6.5656298212       -1.7344047760       -1.3061607975
 H         -6.0058039486        2.0430394068       -1.3984419572
 H         -4.6713257411        3.7634517239       -2.5146018501
 H         -2.2076289253        3.7171200312       -2.3730209197
 H         -1.0752031991        1.9524032800       -1.1099898401
 H         -0.5561207654        1.6506801915        1.5030829421
 H          1.9109840910        1.6093550129        1.4514775715
 H          5.7080782796       -2.8145579364       -1.8595325931
 H          7.8363314602       -3.7551415870       -2.7434654529
 H          9.9626195139       -2.6084398876       -2.2381705172
 H         10.0014714446       -0.5939030653       -0.9000968810
 H          9.9900210251        1.0530253766        0.1916664486
 H          9.9287804458        3.0693173231        1.5275578434
 H          7.7912937209        3.9632523597        2.3781265521
 H          5.6800962365        2.7753214407        1.8519052946
 H          1.8089161686       -1.9053296343       -0.9649367340
 H         -0.6723468630       -1.8664958034       -0.9122865354
 H         -1.3136411202       -2.0523140446        1.7623094934
 H         -2.6507995781       -3.7610575401        2.9037179450
 H         -5.1130758322       -3.7240719324        2.7496043737
 H         -6.2462926084       -1.9797275462        1.4580056563
 H         -6.8288080997        1.7305255992        1.1739507207
 H         -9.2869590877        1.7329597088        0.9190501433
  69
  -111.640809543700       0.117771307031787      !
 N        -11.8948436409        0.0345819121        0.0530232145
 C        -10.7482766399        0.0274565192        0.0429293573
 C         -9.3352267114        0.0185458018        0.0310731830
 C         -8.6459045715       -1.1899697435       -0.0800946379
 C         -7.2662529997       -1.1927798552       -0.0888403967
 C         -6.5521565901        0.0004366741        0.0077986597
 C         -5.0754587326       -0.0089750955       -0.0054917538
 C         -4.3856510019        0.5463367258       -1.0928700335
 C         -5.0688755716        1.0849066706       -2.2152096264
 C         -4.3907022979        1.6527850491       -3.2490376088
 C         -2.9842609761        1.7277013095       -3.2186713318
 C         -2.2905119587        1.1978448796       -2.1746928074
 C         -2.9559933377        0.5618136492       -1.0934465154
 C         -2.2512844272       -0.0255394825       -0.0309014792
 C         -0.7760563296       -0.0320558557       -0.0432602989
 C         -0.0577355143        0.6434050015        0.9420022128
 C          1.3216063493        0.6392914720        0.9354740767
 C          2.0140140328       -0.0398059863       -0.0670978445
 C          3.4575991302       -0.0499654604       -0.0956477713
 N          4.1981968322       -0.5089305203       -1.0633372150
 C          5.4846910264       -0.3053013006       -0.6555954422
 C          6.7153497210       -0.5915652006       -1.3105297940
 C          6.7481994385       -1.1623953066       -2.5863623348
 C          7.9492191691       -1.4145859929       -3.2017140445
 C          9.1355656242       -1.0976183703       -2.5432672685
 C          9.1154270749       -0.5382592692       -1.2869120674
 C          7.9097763729       -0.2644592534       -0.6229206720
 C          7.8661618991        0.3279872723        0.7033754310
 C          9.0228788040        0.6407492871        1.4321434100
 C          8.9584003434        1.2016284484        2.6866921356
 C          7.7293045955        1.4817902056        3.2806358867
 C          6.5716163689        1.1910052774        2.6040541133
 C          6.6248376385        0.6173420932        1.3274707461
 C          5.4589755481        0.2867019069        0.5969500704
 O          4.1640572393        0.4532955126        0.9515588390
 C          1.3003201904       -0.7157179472       -1.0580925521
 C         -0.0778444965       -0.7123307544       -1.0411375072
 C         -2.9437863351       -0.6054848674        1.0436083987
 C         -2.2665804774       -1.2505568673        2.1121469207
 C         -2.9472877075       -1.7725262256        3.1685683328
 C         -4.3519391630       -1.6802665015        3.2248377678
 C         -5.0419675548       -1.1038011329        2.2036197818
 C         -4.3729288720       -0.5730590215        1.0690576350
 C         -7.2490180863        1.2028064676        0.1163351529
 C         -8.6285331022        1.2180029826        0.1305818891
 H         -9.1986173045       -2.1146592166       -0.1585828620
 H         -6.7277285811       -2.1249615324       -0.1784202396
 H         -6.1473069610        1.0330711077       -2.2387473293
 H         -4.9252379387        2.0559974008       -4.0964584326
 H         -2.4617700564        2.2059872552       -4.0338210544
 H         -1.2129698262        1.2586500353       -2.1549695738
 H         -0.5933547497        1.1825933482        1.7101637080
 H          1.8729260183        1.1656080149        1.6999383738
 H          5.8076478552       -1.3901506961       -3.0633915044
 H          7.9792755947       -1.8529225872       -4.1880702749
 H         10.0827905990       -1.2918925331       -3.0251268992
 H         10.0575603443       -0.3067151060       -0.8161502345
 H          9.9955156955        0.4387949640        1.0131014174
 H          9.8713752510        1.4266891019        3.2183299919
 H          7.6920738944        1.9217288063        4.2659576514
 H          5.6039647702        1.3929667415        3.0388591258
 H          1.8496662205       -1.2368927486       -1.8256683393
 H         -0.6305197486       -1.2475657486       -1.7996677348
 H         -1.1904538011       -1.3255507658        2.0716153638
 H         -2.4159794975       -2.2583164309        3.9735825873
 H         -4.8756212072       -2.0776087431        4.0816912245
 H         -6.1191291359       -1.0393369383        2.2466602780
 H         -6.6969686648        2.1279385195        0.1965186120
 H         -9.1677406495        2.1498182538        0.2185745142
  69
  -111.639584257500       3.220601163250342E-002 !
 N        -11.7111387456        0.4885530680       -1.0859283807
 C        -10.5928918779        0.3948222268       -0.8499853128
 C         -9.2091039517        0.2774299924       -0.5885979189
 C         -8.5374958068       -0.9076354896       -0.8926163063
 C         -7.1838100937       -1.0099376155       -0.6457855008
 C         -6.4777054656        0.0611458455       -0.1010509178
 C         -5.0205165473       -0.0416103564        0.1157279841
 C         -4.1532325024        0.7257044961       -0.6768215461
 C         -4.6298688236        1.6003274718       -1.6889398199
 C         -3.7733477778        2.3431289522       -2.4416910169
 C         -2.3824653994        2.2539565200       -2.2354815679
 C         -1.8826466695        1.4072607880       -1.2952466441
 C         -2.7410643034        0.6095433746       -0.4932759381
 C         -2.2330860338       -0.2838208141        0.4604115338
 C         -0.7633764855       -0.4270611464        0.5645043447
 C         -0.0243073013        0.3363694745        1.4629055730
 C          1.3559979640        0.3132279221        1.4306345319
 C          2.0186407276       -0.4798839557        0.4942008231
 C          3.4497374521       -0.3989162033        0.3198790152
 N          4.1304134056       -1.0173139775       -0.6023571377
 C          5.4070448908       -0.5537059090       -0.4755569867
 C          6.5681213016       -0.8382851298       -1.2472305775
 C          6.5348196221       -1.7510231959       -2.3057524712
 C          7.6625022941       -1.9867316005       -3.0523999146
 C          8.8404452736       -1.3086522311       -2.7453926675
 C          8.8853882595       -0.4109621533       -1.7041819548
 C          7.7556027661       -0.1410376097       -0.9164518887
 C          7.7770117246        0.8100928051        0.1822390573
 C          8.9279359591        1.5272804007        0.5399242951
 C          8.9253076203        2.4294253043        1.5784983234
 C          7.7677725000        2.6611452908        2.3190531220
 C          6.6179346655        1.9822007403        2.0032721354
 C          6.6075335099        1.0640336399        0.9457111216
 C          5.4409466189        0.3581451626        0.5671543454
 O          4.1910699651        0.4517078317        1.0782723100
 C          1.2794433742       -1.3018488085       -0.3587341632
 C         -0.0973006780       -1.2719171854       -0.3217069590
 C         -3.0975708655       -1.0379290692        1.2596809497
 C         -2.6043571558       -1.9369050557        2.2413935057
 C         -3.4533856704       -2.6532863000        3.0267320978
 C         -4.8482850833       -2.5092735418        2.8802123695
 C         -5.3605802190       -1.6648505222        1.9438710808
 C         -4.5119602432       -0.9101409311        1.0917344742
 C         -7.1583518733        1.2377283444        0.2078251511
 C         -8.5126479650        1.3504246790       -0.0300370998
 H         -9.0822719711       -1.7347254768       -1.3237552967
 H         -6.6574576006       -1.9223063385       -0.8857392761
 H         -5.6940170257        1.6666044954       -1.8596901252
 H         -4.1534936475        3.0038217500       -3.2067526552
 H         -1.7176433558        2.8567763427       -2.8360730793
 H         -0.8163719785        1.3299168848       -1.1438758234
 H         -0.5402572855        0.9743791532        2.1658894098
 H          1.9287063835        0.9310234339        2.1057632663
 H          5.6018456391       -2.2517598110       -2.5132685652
 H          7.6407990471       -2.6880569510       -3.8731655859
 H          9.7292334042       -1.4887572197       -3.3326334217
 H          9.8185965227        0.0904344204       -1.5028818875
 H          9.8461933967        1.3799698082       -0.0054686541
 H          9.8309918251        2.9651608203        1.8223974232
 H          7.7787505542        3.3711470391        3.1324060856
 H          5.7045223237        2.1414563516        2.5569451970
 H          1.8086332244       -1.9245238941       -1.0619152250
 H         -0.6740205356       -1.8810655340       -1.0022921289
 H         -1.5341964185       -2.0336687233        2.3536304838
 H         -3.0681194692       -3.3323575463        3.7728802064
 H         -5.5077620427       -3.0757941333        3.5210608733
 H         -6.4299581580       -1.5518170780        1.8415475489
 H         -6.6139428116        2.0653258592        0.6388736046
 H         -9.0387663453        2.2639218606        0.2054873526
