  69
       -112.09422665
 N        -11.8930282866        0.1074266855        0.1064489006
 C        -10.7465901471        0.0898640937        0.0853222273
 C         -9.3339776548        0.0660574172        0.0575018764
 C         -8.6615150885       -0.1225697213       -1.1508210172
 C         -7.2820976333       -0.1443704547       -1.1705688715
 C         -6.5515338679        0.0168014148        0.0055830935
 C         -5.0752732668       -0.0107526266       -0.0190138027
 C         -4.3691634131        1.0197255182       -0.6567098107
 C         -5.0315406114        2.1192886775       -1.2639674706
 C         -4.3350403802        3.0973888610       -1.9042138197
 C         -2.9295016791        3.0353660952       -1.9808985188
 C         -2.2546130838        2.0139334071       -1.3869537905
 C         -2.9402021490        0.9869284931       -0.6858410638
 C         -2.2527728593       -0.0546577140       -0.0454834061
 C         -0.7760791532       -0.0667793120       -0.0477039067
 C         -0.0653118249        0.9069328071        0.6510162209
 C          1.3140580280        0.9041070176        0.6542435574
 C          2.0122381690       -0.0772214846       -0.0496499651
 C          3.4558399604       -0.0960250218       -0.0620231414
 N          4.2018548323       -0.9819612987       -0.6575279681
 C          5.4860766911       -0.5994845761       -0.3988225806
 C          6.7200553099       -1.1906676228       -0.7901339410
 C          6.7591021372       -2.3532645551       -1.5657611067
 C          7.9632533020       -2.9055106813       -1.9259615099
 C          9.1463418035       -2.2973409082       -1.5115342553
 C          9.1200311841       -1.1527462174       -0.7492770792
 C          7.9109908544       -0.5556689454       -0.3602986728
 C          7.8605220302        0.6539399330        0.4436904831
 C          9.0136148046        1.3195998719        0.8844530381
 C          8.9429100043        2.4641662327        1.6444313963
 C          7.7107457152        3.0058529839        2.0054275502
 C          6.5564089092        2.3875416742        1.5958033237
 C          6.6159566738        1.2219346925        0.8215509617
 C          5.4537692905        0.5505307142        0.3735269397
 O          4.1569701740        0.8707137866        0.5883788488
 C          1.3048309298       -1.0545689007       -0.7517992881
 C         -0.0736227191       -1.0473839284       -0.7469582963
 C         -2.9595737187       -1.0792468762        0.6009001725
 C         -2.2936501796       -2.1324250354        1.2817893685
 C         -2.9894392286       -3.1363853060        1.8814788432
 C         -4.3975188526       -3.1520876311        1.8338055448
 C         -5.0747007922       -2.1474132781        1.2143795027
 C         -4.3892484939       -1.0666475311        0.5989859303
 C         -7.2318791549        0.2038936191        1.2078266210
 C         -8.6107484349        0.2311072948        1.2397617091
 H         -9.2269133541       -0.2513902889       -2.0621207927
 H         -6.7568227776       -0.2955605509       -2.1024148199
 H         -6.1087937675        2.1707944584       -1.2078073956
 H         -4.8545414708        3.9259249578       -2.3627242168
 H         -2.3936014735        3.8076186812       -2.5128395592
 H         -1.1775595733        1.9673174256       -1.4460938296
 H         -0.6070910657        1.6642107521        1.1993097838
 H          1.8607470132        1.6583505809        1.1996849959
 H          5.8207462765       -2.7939214064       -1.8648804433
 H          7.9982172721       -3.8039825807       -2.5237793195
 H         10.0958592569       -2.7301784798       -1.7904817689
 H         10.0599648704       -0.7168415831       -0.4506504825
 H          9.9883006541        0.9363778833        0.6293999239
 H          9.8532279483        2.9488785313        1.9653833184
 H          7.6685829711        3.9048111218        2.6019962388
 H          5.5866036517        2.7832205466        1.8585884292
 H          1.8595554334       -1.8049829897       -1.2918616720
 H         -0.6226956279       -1.7996601951       -1.2945331699
 H         -1.2146217148       -2.1225263827        1.3174174924
 H         -2.4682769185       -3.9310993583        2.3943117952
 H         -4.9342968976       -3.9674708288        2.2956877845
 H         -6.1539738359       -2.1641727776        1.1788836130
 H         -6.6670735333        0.3339502480        2.1195360375
 H         -9.1368868953        0.3786774277        2.1714449611
