  53
        -84.87552380
 N         -5.5824933860        3.3701900504       -0.4687811327
 C         -4.5139442397        3.0052777945       -0.2668424285
 C         -3.2009747564        2.5519739108       -0.0124231677
 C         -2.2903633510        3.3770860318        0.6507567343
 C         -1.0160165159        2.9162518129        0.9045542015
 C         -0.6203419629        1.6400093879        0.5088517346
 N          0.6639064160        1.1864410133        0.8079691705
 C          1.8451479094        1.7806172529        0.3917955336
 C          2.0474573632        3.0061622441       -0.2231007184
 C          3.3416833317        3.3482093499       -0.5695940627
 C          4.4100709746        2.4913333641       -0.3208732111
 C          4.2102537951        1.2610363372        0.2741507363
 C          2.9202374493        0.8972113941        0.6333144198
 C          2.3590457687       -0.2813549094        1.2350228388
 C          2.9005550513       -1.4741589304        1.6925423793
 C          2.0555501371       -2.4099110262        2.2567971438
 C          0.6959649013       -2.1516954594        2.4065183246
 C          0.1363439034       -0.9683006606        1.9638315209
 C          0.9696962621       -0.0575487882        1.3343618125
 C         -1.5291017558        0.8211074256       -0.1960934669
 N         -1.1473106208       -0.4421747166       -0.6549618611
 C         -1.7332059884       -1.6422767356       -0.2875844488
 C         -2.8991552789       -1.8726021144        0.4256922799
 C         -3.2451311472       -3.1850494437        0.6889366239
 C         -2.4500525721       -4.2449079286        0.2615575026
 C         -1.2801712978       -4.0191533294       -0.4367416583
 C         -0.9133586738       -2.7100088116       -0.7150788626
 C          0.2153602671       -2.1215765721       -1.3820439963
 C          1.3393879718       -2.6440800439       -2.0059281512
 C          2.2414792822       -1.7711166869       -2.5818678759
 C          2.0149171167       -0.3975924029       -2.5767053342
 C          0.8999047729        0.1444998555       -1.9667424853
 C          0.0266673684       -0.7240707001       -1.3315065309
 C         -2.8146914820        1.2822387073       -0.4372581421
 H         -2.5936308975        4.3618390967        0.9716632416
 H         -0.3147699979        3.5321715409        1.4469204458
 H          1.2249869434        3.6723630060       -0.4385243445
 H          3.5253259968        4.2992332651       -1.0470233189
 H          5.4062996474        2.7944668837       -0.6057422012
 H          5.0362161589        0.5900775717        0.4537919467
 H          3.9602235832       -1.6611155955        1.6098370707
 H          2.4546831251       -3.3498845637        2.6067790505
 H          0.0632658564       -2.8874850457        2.8796805254
 H         -0.9131523722       -0.7642112716        2.1115085363
 H         -3.5164527313       -1.0588052097        0.7773157489
 H         -4.1502240912       -3.3905974928        1.2409031040
 H         -2.7541131962       -5.2559477942        0.4871350553
 H         -0.6574903175       -4.8401627564       -0.7576147515
 H          1.4994522667       -3.7108412012       -2.0402423764
 H          3.1277210763       -2.1567258034       -3.0628015709
 H          2.7214663501        0.2600816323       -3.0603914001
 H          0.7175875014        1.2081217979       -1.9935264599
 H         -3.5084415072        0.6618176210       -0.9844527097
