  53
        -84.87552380
 N         -5.5824933860        3.3701900504       -0.4687811327
 C         -4.5139442397        3.0052777945       -0.2668424285
 C         -3.2009747564        2.5519739108       -0.0124231677
 C         -2.2903633510        3.3770860318        0.6507567343
 C         -1.0160165159        2.9162518129        0.9045542015
 C         -0.6203419629        1.6400093879        0.5088517346
 N          0.6639064160        1.1864410133        0.8079691705
 C          1.8451479094        1.7806172529        0.3917955336
 C          2.0474573632        3.0061622441       -0.2231007184
 C          3.3416833317        3.3482093499       -0.5695940627
 C          4.4100709746        2.4913333641       -0.3208732111
 C          4.2102537951        1.2610363372        0.2741507363
 C          2.9202374493        0.8972113941        0.6333144198
 C          2.3590457687       -0.2813549094        1.2350228388
 C          2.9005550513       -1.4741589304        1.6925423793
 C          2.0555501371       -2.4099110262        2.2567971438
 C          0.6959649013       -2.1516954594        2.4065183246
 C          0.1363439034       -0.9683006606        1.9638315209
 C          0.9696962621       -0.0575487882        1.3343618125
 C         -1.5291017558        0.8211074256       -0.1960934669
 N         -1.1473106208       -0.4421747166       -0.6549618611
 C         -1.7332059884       -1.6422767356       -0.2875844488
 C         -2.8991552789       -1.8726021144        0.4256922799
 C         -3.2451311472       -3.1850494437        0.6889366239
 C         -2.4500525721       -4.2449079286        0.2615575026
 C         -1.2801712978       -4.0191533294       -0.4367416583
 C         -0.9133586738       -2.7100088116       -0.7150788626
 C          0.2153602671       -2.1215765721       -1.3820439963
 C          1.3393879718       -2.6440800439       -2.0059281512
 C          2.2414792822       -1.7711166869       -2.5818678759
 C          2.0149171167       -0.3975924029       -2.5767053342
 C          0.8999047729        0.1444998555       -1.9667424853
 C          0.0266673684       -0.7240707001       -1.3315065309
 C         -2.8146914820        1.2822387073       -0.4372581421
 H         -2.5936308975        4.3618390967        0.9716632416
 H         -0.3147699979        3.5321715409        1.4469204458
 H          1.2249869434        3.6723630060       -0.4385243445
 H          3.5253259968        4.2992332651       -1.0470233189
 H          5.4062996474        2.7944668837       -0.6057422012
 H          5.0362161589        0.5900775717        0.4537919467
 H          3.9602235832       -1.6611155955        1.6098370707
 H          2.4546831251       -3.3498845637        2.6067790505
 H          0.0632658564       -2.8874850457        2.8796805254
 H         -0.9131523722       -0.7642112716        2.1115085363
 H         -3.5164527313       -1.0588052097        0.7773157489
 H         -4.1502240912       -3.3905974928        1.2409031040
 H         -2.7541131962       -5.2559477942        0.4871350553
 H         -0.6574903175       -4.8401627564       -0.7576147515
 H          1.4994522667       -3.7108412012       -2.0402423764
 H          3.1277210763       -2.1567258034       -3.0628015709
 H          2.7214663501        0.2600816323       -3.0603914001
 H          0.7175875014        1.2081217979       -1.9935264599
 H         -3.5084415072        0.6618176210       -0.9844527097
  53
        -84.87444679
 N         -5.6347538794        3.3766316116       -0.3986242996
 C         -4.5543888367        3.0244354247       -0.2407255345
 C         -3.2340429530        2.5800177457       -0.0077311020
 C         -2.3088599801        3.4218066391        0.6122584768
 C         -1.0303629760        2.9658719186        0.8619374514
 C         -0.6511306847        1.6789150946        0.4935486165
 N          0.6121881616        1.1822040214        0.8215105418
 C          1.8313674158        1.6355918277        0.3453208253
 C          2.1317886616        2.8047590856       -0.3346607566
 C          3.4398651916        2.9959678680       -0.7395071653
 C          4.4263680754        2.0492206237       -0.4780827467
 C          4.1304879481        0.8819734906        0.1979273943
 C          2.8250752130        0.6686193284        0.6162258586
 C          2.1751541335       -0.4114424472        1.3072527658
 C          2.6126748735       -1.6164205383        1.8395238931
 C          1.6982020670       -2.4243868898        2.4871052434
 C          0.3717770203       -2.0309020990        2.6398341206
 C         -0.0854985927       -0.8359515939        2.1183131291
 C          0.8165273246       -0.0515963132        1.4179495025
 C         -1.5656309645        0.8543090070       -0.1989780790
 N         -1.1452472132       -0.3896537993       -0.6823347189
 C         -1.5863054697       -1.6337901060       -0.2654924793
 C         -2.6987894409       -1.9653111917        0.4910244155
 C         -2.8886821629       -3.2979338058        0.8059354596
 C         -1.9962727219       -4.2784098907        0.3809414273
 C         -0.8885723063       -3.9522734259       -0.3763308770
 C         -0.6778029927       -2.6215278355       -0.7073632765
 C          0.3511976195       -1.9384460883       -1.4425002272
 C          1.4901580763       -2.3534663668       -2.1189377912
 C          2.2620506813       -1.4039761549       -2.7598067526
 C          1.8961912880       -0.0607980421       -2.7619321907
 C          0.7671837522        0.3749504627       -2.0955994100
 C          0.0212306610       -0.5680035501       -1.4070927262
 C         -2.8567950582        1.3024928140       -0.4218356051
 H         -2.6052249769        4.4161595838        0.9095426790
 H         -0.3186048320        3.5937737920        1.3764041852
 H          1.3707967289        3.5394479990       -0.5539988173
 H          3.7006867759        3.8980604849       -1.2727468578
 H          5.4360820447        2.2335036627       -0.8129176320
 H          4.8933193088        0.1443126736        0.3945584827
 H          3.6477052127       -1.9094079185        1.7526397856
 H          2.0168011065       -3.3691135531        2.9011024399
 H         -0.3148323905       -2.6688474678        3.1755124585
 H         -1.1088815664       -0.5228128926        2.2606848907
 H         -3.3905650978       -1.2102071459        0.8353379180
 H         -3.7461063168       -3.5833530243        1.3971459955
 H         -2.1762301228       -5.3079588693        0.6516386697
 H         -0.1943800580       -4.7117251546       -0.7021385125
 H          1.7604236191       -3.3979547416       -2.1459506771
 H          3.1552010667       -1.7056803066       -3.2858229167
 H          2.5036969605        0.6557723503       -3.2938478379
 H          0.4735367109        1.4137992845       -2.1193633732
 H         -3.5611536424        0.6714536440       -0.9429682572
