  55
  -88.7305653473000       0.350382881504416      !
 N         -2.2240903865       -5.8776356548        0.0375307525
 C         -2.4042650757       -4.7452317451        0.0249040454
 C         -2.6219789430       -3.3490489419        0.0088562959
 C         -3.9306025529       -2.8579279627       -0.0099010171
 C         -4.1682894315       -1.4966220570       -0.0222069937
 C         -3.0843359737       -0.6305429376       -0.0156419658
 C         -1.7706391752       -1.1282322838       -0.0002772913
 C         -1.5252707040       -2.4801031069        0.0119072824
 C         -0.7625537210        0.0021687150        0.0020530884
 C         -1.6762191823        1.2108485343       -0.0004198498
 C         -1.3226544078        2.5384359729        0.0109166940
 C         -2.3455986729        3.4931519834        0.0043787360
 C         -2.0156474988        4.8671498241        0.0196139131
 N         -1.7482065840        5.9820201822        0.0291023376
 C         -3.6896039832        3.1091955908       -0.0168816099
 C         -4.0361219137        1.7713170554       -0.0274554896
 C         -3.0257132451        0.8205825298       -0.0168698395
 C          0.0764449601       -0.0303407843        1.2585422708
 C         -0.5667602659       -0.0335560217        2.4873618490
 C          0.1468026038       -0.0628213809        3.6706102607
 C          1.5303825327       -0.0918091526        3.6238453190
 C          2.1867715477       -0.0890568506        2.4106623622
 C          1.4726118542       -0.0552312482        1.2093234361
 N          2.1426258588       -0.0523552095       -0.0016680851
 C          3.5675689577       -0.0729645388       -0.0035161039
 C          4.2433735623       -1.2829716178       -0.0927111677
 C          5.6268733364       -1.2981702601       -0.0958573062
 C          6.3351291935       -0.1110106543       -0.0086544921
 C          5.6600720419        1.0950256767        0.0812592880
 C          4.2765727606        1.1178534337        0.0832787434
 C          1.4700220121       -0.0467536484       -1.2112469730
 C          2.1818761614       -0.0549796850       -2.4145192981
 C          1.5229572065       -0.0518294719       -3.6262230069
 C          0.1390214020       -0.0386120795       -3.6698521244
 C         -0.5719814084       -0.0243567230       -2.4848338583
 C          0.0737207319       -0.0272684792       -1.2573808651
 H         -4.7541375446       -3.5567196564       -0.0136158707
 H         -5.1793365970       -1.1187489626       -0.0361422622
 H         -0.5184399284       -2.8708096002        0.0258704355
 H         -0.2876066183        2.8465868223        0.0260693349
 H         -4.4540548942        3.8721555520       -0.0237005986
 H         -5.0744464644        1.4761875753       -0.0430846492
 H         -1.6473396763       -0.0126404955        2.5111615727
 H         -0.3709189306       -0.0643912775        4.6169782284
 H          2.1048680736       -0.1173652857        4.5375083008
 H          3.2654403849       -0.1146856091        2.3862788322
 H          3.6802633074       -2.2021223387       -0.1606193110
 H          6.1523546918       -2.2386850378       -0.1657495234
 H          7.4145771259       -0.1258002151       -0.0109365821
 H          6.2114624094        2.0207727642        0.1486830289
 H          3.7395201462        2.0523320572        0.1525121122
 H          3.2608126919       -0.0624357365       -2.3928408540
 H          2.0958240547       -0.0588196638       -4.5412624351
 H         -0.3807885761       -0.0366264536       -4.6150276858
 H         -1.6526566277       -0.0094825908       -2.5072459070
  55
  -88.7299906499000       0.190734933149283      !
 N         -1.4706662723       -5.7641987497       -0.0548372700
 C         -1.7910698782       -4.6632275868       -0.0472749925
 C         -2.1817733653       -3.3054604617       -0.0376343211
 C         -3.5407702370       -2.9783396526       -0.0305950248
 C         -3.9430934908       -1.6562717272       -0.0176516496
 C         -2.9736857128       -0.6636957744       -0.0104653246
 C         -1.6095178074       -0.9970801280       -0.0180788597
 C         -1.2001980656       -2.3083389591       -0.0324443567
 C         -0.7473752128        0.2513217677       -0.0065281076
 C         -1.8005211214        1.3359712374        0.0072286737
 C         -1.6123681869        2.6972083252        0.0261117116
 C         -2.7445769907        3.5191379657        0.0449247193
 C         -2.5858487610        4.9230598242        0.0679217134
 N         -2.4587290326        6.0624923052        0.0879016704
 C         -4.0316941597        2.9733393659        0.0437571273
 C         -4.2120200647        1.6032527470        0.0240703923
 C         -3.0927534827        0.7834199200        0.0062817774
 C          0.0949328892        0.2828026023        1.2483183643
 C         -0.5220935969        0.4925365789        2.4723963761
 C          0.2025519695        0.4917379551        3.6493255995
 C          1.5695751912        0.2774872374        3.6012585659
 C          2.1995111606        0.0658932851        2.3925350687
 C          1.4730183240        0.0578674702        1.1984105911
 N          2.1164622817       -0.1488841280       -0.0111020674
 C          3.5023100709       -0.4747111226       -0.0023851633
 C          3.8941634871       -1.7803060628        0.2628030548
 C          5.2389337929       -2.1056833996        0.2769270926
 C          6.1919019741       -1.1333713657        0.0232356443
 C          5.8006890069        0.1690675819       -0.2406290091
 C          4.4581851416        0.5027299416       -0.2510078360
 C          1.4700541453        0.0523970620       -1.2200677435
 C          2.1785213086        0.0005732886       -2.4236619019
 C          1.5438619515        0.2227612199       -3.6281977178
 C          0.1875681740        0.4974725074       -3.6642465403
 C         -0.5264252352        0.5225531930       -2.4809539306
 C          0.0946849344        0.3003743968       -1.2612447610
 H         -4.2725972997       -3.7726834179       -0.0351216746
 H         -4.9929597592       -1.4052328741       -0.0128322710
 H         -0.1532980069       -2.5737199249       -0.0393857806
 H         -0.6225160592        3.1292030665        0.0279496179
 H         -4.8838376952        3.6367564827        0.0593061227
 H         -5.2062954914        1.1830775528        0.0240669972
 H         -1.5902297482        0.6550075315        2.5002735667
 H         -0.2947455823        0.6556371073        4.5924277366
 H          2.1519658162        0.2776232747        4.5102067180
 H          3.2667018840       -0.0921256892        2.3662751885
 H          3.1436439909       -2.5312740210        0.4611163579
 H          5.5420318020       -3.1209598004        0.4839849085
 H          7.2403768375       -1.3902044507        0.0321778227
 H          6.5427784316        0.9286658014       -0.4359912014
 H          4.1421726045        1.5159336221       -0.4520970455
 H          3.2344661120       -0.2203521673       -2.4114438731
 H          2.1145688743        0.1797600507       -4.5435557362
 H         -0.3120943690        0.6764559378       -4.6033406682
 H         -1.5905063108        0.7107837466       -2.5007959533
  55
  -88.7299897775000       0.190558933786937      !
 N         -1.2072451277       -5.6999304625       -0.0385666807
 C         -1.5774693520       -4.6147647122       -0.0291201214
 C         -2.0267163656       -3.2752421244       -0.0244366230
 C         -3.3978990655       -3.0037237427       -0.0281039211
 C         -3.8539202588       -1.6990650327       -0.0199938482
 C         -2.9260572037       -0.6674697896       -0.0079923539
 C         -1.5498780889       -0.9454410711       -0.0052806083
 C         -1.0870898372       -2.2387436912       -0.0137454804
 C         -0.7387195909        0.3373668068        0.0054574719
 C         -1.8335455307        1.3781052544        0.0123016993
 C         -1.7017865490        2.7463921726        0.0226529559
 C         -2.8666691278        3.5215416956        0.0217719796
 C         -2.7657523898        4.9311180278        0.0270582129
 N         -2.6946846912        6.0754526764        0.0394121010
 C         -4.1305678776        2.9238542350        0.0113094250
 C         -4.2545220722        1.5473869283        0.0018992519
 C         -3.1026747765        0.7737300858        0.0021545032
 C          0.1080672110        0.3884080527        1.2568395121
 C         -0.4857614099        0.6684296435        2.4776546084
 C          0.2461322273        0.6476676286        3.6506896644
 C          1.5933361819        0.3328454565        3.6030885496
 C          2.2014133956        0.0537696727        2.3964383935
 C          1.4702528992        0.0783255023        1.2062515548
 N          2.0900922214       -0.1882653100       -0.0036770237
 C          3.4518608304       -0.6068278432       -0.0014383191
 C          3.7467822999       -1.9566303546        0.1324326621
 C          5.0658177035       -2.3754761546        0.1363768496
 C          6.0883946156       -1.4510319934        0.0056981118
 C          5.7935088682       -0.1037820271       -0.1262941703
 C          4.4773964907        0.3221410010       -0.1287603293
 C          1.4653652642        0.0856754658       -1.2095270460
 C          2.1818039116        0.0439359984       -2.4081384396
 C          1.5664786231        0.3348632730       -3.6083581699
 C          0.2247329393        0.6733234516       -3.6424640441
 C         -0.4967812346        0.6955999273       -2.4631478619
 C          0.1042779552        0.4040987286       -1.2485735245
 H         -4.0966268668       -3.8272688571       -0.0381737181
 H         -4.9132101948       -1.4913881079       -0.0236798226
 H         -0.0303611232       -2.4610453617       -0.0132995864
 H         -0.7306430190        3.2187608108        0.0291174100
 H         -5.0091153286        3.5521273380        0.0104370926
 H         -5.2307004769        1.0867075887       -0.0054098173
 H         -1.5410055905        0.8995408629        2.5085564635
 H         -0.2329904064        0.8679005853        4.5917929735
 H          2.1777873547        0.3059812905        4.5103850493
 H          3.2533818066       -0.1858095100        2.3692790685
 H          2.9429532042       -2.6708183985        0.2340507740
 H          5.2936910833       -3.4256427879        0.2397202333
 H          7.1165559281       -1.7800713748        0.0075361708
 H          6.5903989357        0.6177979521       -0.2269008194
 H          4.2352546529        1.3699101904       -0.2308303264
 H          3.2272546951       -0.2228661278       -2.3947398941
 H          2.1406631313        0.2955242039       -4.5217267871
 H         -0.2597604542        0.9042977113       -4.5782097987
 H         -1.5502835729        0.9354453569       -2.4845679263
  55
  -88.7298010868000       0.156067715230619      !
 N         -3.1564977561       -5.8931941100       -0.0608154352
 C         -3.1418631071       -4.7468110386       -0.0448762782
 C         -3.1294695117       -3.3337810256       -0.0250926050
 C         -4.3417616452       -2.6374434425       -0.0089631817
 C         -4.3556274580       -1.2555966098        0.0074877250
 C         -3.1458734737       -0.5760474351        0.0077867352
 C         -1.9287159433       -1.2792936463       -0.0063872589
 C         -1.9065363217       -2.6538667169       -0.0231325479
 C         -0.7552105908       -0.3289240952       -0.0011999503
 C         -1.4619523298        1.0145440519        0.0102643161
 C         -0.8983667630        2.2671705638        0.0149393735
 C         -1.7528099255        3.3749620094        0.0273849352
 C         -1.1968229670        4.6738152521        0.0295101711
 N         -0.7388755179        5.7250721616        0.0275471676
 C         -3.1410764374        3.2130005404        0.0371053048
 C         -3.6988816384        1.9484512811        0.0330873297
 C         -2.8557574024        0.8465573310        0.0185935626
 C          0.0843967468       -0.4556553719        1.2507683172
 C         -0.5242049376       -0.7386228898        2.4633489644
 C          0.2011104115       -0.7571760951        3.6406072824
 C          1.5539904481       -0.4668430198        3.6067841373
 C          2.1772497539       -0.1864522159        2.4080276485
 C          1.4571095824       -0.1901958338        1.2112215212
 N          2.0875321295        0.0694232962        0.0047933758
 C          3.4587823594        0.4549424550       -0.0018450104
 C          4.4633504953       -0.4940669076        0.1440515993
 C          5.7886294466       -0.0976745267        0.1354000716
 C          6.1138176704        1.2398545031       -0.0216671498
 C          5.1123216615        2.1841979877       -0.1709962235
 C          3.7843365466        1.7949538640       -0.1607673766
 C          1.4602440360       -0.1898802895       -1.2033000433
 C          2.1943868277       -0.2161589731       -2.3913388067
 C          1.5774809309       -0.4915762003       -3.5944481569
 C          0.2187654797       -0.7523330742       -3.6397699628
 C         -0.5161813868       -0.7218774137       -2.4686936805
 C          0.0863884411       -0.4444003464       -1.2518184354
 H         -5.2675345863       -3.1937679317       -0.0104191972
 H         -5.2919945501       -0.7186945792        0.0191699325
 H         -0.9760987997       -3.2020023568       -0.0351949124
 H          0.1724692477        2.4055665290        0.0100372776
 H         -3.7724425856        4.0892575905        0.0472157797
 H         -4.7712751510        1.8253542878        0.0406669012
 H         -1.5862148453       -0.9369659562        2.4860084814
 H         -0.2892636788       -0.9806799755        4.5751078112
 H          2.1311654482       -0.4582469437        4.5190857910
 H          3.2316737437        0.0422484053        2.3948977080
 H          4.1979686347       -1.5342985730        0.2641399150
 H          6.5691357605       -0.8349321470        0.2498958922
 H          7.1491053797        1.5456113280       -0.0291278208
 H          5.3634948070        3.2266900374       -0.2953979718
 H          2.9975189844        2.5252987277       -0.2792792724
 H          3.2553480394       -0.0200263972       -2.3653208645
 H          2.1641094671       -0.5048811615       -4.5006291257
 H         -0.2672665492       -0.9691006897       -4.5781372205
 H         -1.5801691009       -0.9083375156       -2.4991993527
  55
  -88.7294896960000       0.112255536328745      !
 N         -0.9355204388       -5.6282843412       -0.0312846792
 C         -1.3608385485       -4.5632508526       -0.0295977977
 C         -1.8679613577       -3.2445969240       -0.0244839764
 C         -3.2488750268       -3.0289161349       -0.0175819616
 C         -3.7568886813       -1.7435688922       -0.0090401013
 C         -2.8715334693       -0.6751497959       -0.0055966289
 C         -1.4854617566       -0.8971079335       -0.0123697387
 C         -0.9713000731       -2.1707499880       -0.0232578993
 C         -0.7269154737        0.4181816389       -0.0026655903
 C         -1.8619875357        1.4132758520        0.0066766029
 C         -1.7872247699        2.7863004881        0.0166164223
 C         -2.9831135257        3.5126976042        0.0245042310
 C         -2.9417942636        4.9253068155        0.0344654760
 N         -2.9123816078        6.0714553396        0.0423199781
 C         -4.2214227432        2.8634774450        0.0227489387
 C         -4.2883552038        1.4831863418        0.0131742247
 C         -3.1056285366        0.7576432272        0.0051517831
 C          0.1208127480        0.4898878148        1.2476711572
 C         -0.4528569578        0.8302586291        2.4622056718
 C          0.2856526731        0.8091014231        3.6314972993
 C          1.6165791402        0.4314538558        3.5869031084
 C          2.2052856411        0.0938547536        2.3853685836
 C          1.4684120616        0.1200300689        1.1993822114
 N          2.0680423883       -0.1990742155       -0.0087343590
 C          3.3903516323       -0.7280260266       -0.0015097366
 C          3.5696554861       -2.0940039893        0.1691324476
 C          4.8473322776       -2.6253981798        0.1783851229
 C          5.9448128640       -1.7969836484        0.0165577435
 C          5.7660570209       -0.4333715220       -0.1507936353
 C          4.4916971536        0.1048369824       -0.1583316587
 C          1.4677313099        0.1311979139       -1.2137658879
 C          2.1894782191        0.0881325063       -2.4084489113
 C          1.5962425038        0.4424221232       -3.6030394149
 C          0.2731497578        0.8472800203       -3.6341287739
 C         -0.4565679344        0.8665698335       -2.4593876419
 C          0.1214117506        0.5098900394       -1.2515722213
 H         -3.9138736696       -3.8799788978       -0.0189198843
 H         -4.8236902221       -1.5788945856       -0.0042537852
 H          0.0930733332       -2.3510782898       -0.0314466069
 H         -0.8364109249        3.2984283281        0.0183654800
 H         -5.1250886526        3.4550158042        0.0287545076
 H         -5.2446331053        0.9825029851        0.0116273348
 H         -1.4970727100        1.1063409813        2.4936234566
 H         -0.1777160816        1.0756608189        4.5685106849
 H          2.2038441579        0.4019999636        4.4922797076
 H          3.2454996596       -0.1927021606        2.3590145719
 H          2.7094587481       -2.7347457300        0.2964648516
 H          4.9836912848       -3.6880847552        0.3103542678
 H          6.9406967196       -2.2135496407        0.0222200917
 H          6.6216277133        0.2138175794       -0.2735682668
 H          4.3408906024        1.1669823925       -0.2852161876
 H          3.2205862074       -0.2295371619       -2.3977046276
 H          2.1738168640        0.4016540480       -4.5142160088
 H         -0.1929088093        1.1291274137       -4.5652977470
 H         -1.4984352681        1.1522602763       -2.4814302885
