  55
        -89.08283400
 N         -2.2240903865       -5.8776356548        0.0375307525
 C         -2.4042650757       -4.7452317451        0.0249040454
 C         -2.6219789430       -3.3490489419        0.0088562959
 C         -3.9306025529       -2.8579279627       -0.0099010171
 C         -4.1682894315       -1.4966220570       -0.0222069937
 C         -3.0843359737       -0.6305429376       -0.0156419658
 C         -1.7706391752       -1.1282322838       -0.0002772913
 C         -1.5252707040       -2.4801031069        0.0119072824
 C         -0.7625537210        0.0021687150        0.0020530884
 C         -1.6762191823        1.2108485343       -0.0004198498
 C         -1.3226544078        2.5384359729        0.0109166940
 C         -2.3455986729        3.4931519834        0.0043787360
 C         -2.0156474988        4.8671498241        0.0196139131
 N         -1.7482065840        5.9820201822        0.0291023376
 C         -3.6896039832        3.1091955908       -0.0168816099
 C         -4.0361219137        1.7713170554       -0.0274554896
 C         -3.0257132451        0.8205825298       -0.0168698395
 C          0.0764449601       -0.0303407843        1.2585422708
 C         -0.5667602659       -0.0335560217        2.4873618490
 C          0.1468026038       -0.0628213809        3.6706102607
 C          1.5303825327       -0.0918091526        3.6238453190
 C          2.1867715477       -0.0890568506        2.4106623622
 C          1.4726118542       -0.0552312482        1.2093234361
 N          2.1426258588       -0.0523552095       -0.0016680851
 C          3.5675689577       -0.0729645388       -0.0035161039
 C          4.2433735623       -1.2829716178       -0.0927111677
 C          5.6268733364       -1.2981702601       -0.0958573062
 C          6.3351291935       -0.1110106543       -0.0086544921
 C          5.6600720419        1.0950256767        0.0812592880
 C          4.2765727606        1.1178534337        0.0832787434
 C          1.4700220121       -0.0467536484       -1.2112469730
 C          2.1818761614       -0.0549796850       -2.4145192981
 C          1.5229572065       -0.0518294719       -3.6262230069
 C          0.1390214020       -0.0386120795       -3.6698521244
 C         -0.5719814084       -0.0243567230       -2.4848338583
 C          0.0737207319       -0.0272684792       -1.2573808651
 H         -4.7541375446       -3.5567196564       -0.0136158707
 H         -5.1793365970       -1.1187489626       -0.0361422622
 H         -0.5184399284       -2.8708096002        0.0258704355
 H         -0.2876066183        2.8465868223        0.0260693349
 H         -4.4540548942        3.8721555520       -0.0237005986
 H         -5.0744464644        1.4761875753       -0.0430846492
 H         -1.6473396763       -0.0126404955        2.5111615727
 H         -0.3709189306       -0.0643912775        4.6169782284
 H          2.1048680736       -0.1173652857        4.5375083008
 H          3.2654403849       -0.1146856091        2.3862788322
 H          3.6802633074       -2.2021223387       -0.1606193110
 H          6.1523546918       -2.2386850378       -0.1657495234
 H          7.4145771259       -0.1258002151       -0.0109365821
 H          6.2114624094        2.0207727642        0.1486830289
 H          3.7395201462        2.0523320572        0.1525121122
 H          3.2608126919       -0.0624357365       -2.3928408540
 H          2.0958240547       -0.0588196638       -4.5412624351
 H         -0.3807885761       -0.0366264536       -4.6150276858
 H         -1.6526566277       -0.0094825908       -2.5072459070
