80
 energy: -124.487906852306 gnorm: 0.000061848819 xtb: 6.7.1 (edcfbbe)
O            1.99853840614437        3.03280064011322       -0.68469585320986
C            2.20945192887351        1.85005394306474       -0.48843332008591
C            1.08510355401925        0.87820373596395       -0.37624186926571
C           -0.05498136261619        1.24627445738637        0.33338656477734
C           -1.12391180251189        0.37916433806262        0.44197819259062
C           -1.07699763048280       -0.86747256601094       -0.17873936341639
C           -2.18612610664402       -1.85268654949822       -0.04720569538274
O           -1.95496378169119       -3.04381191219764        0.05521884213733
C           -3.56046688443012       -1.31777111689928       -0.03292197020002
C           -4.55894474945971       -2.05308223277040        0.61062286992419
C           -5.85554182213376       -1.59849780921328        0.65833337269323
C           -6.20554501170747       -0.39478426529434        0.03547175536186
N           -7.50963435515139        0.07626733711970        0.08340594591749
C           -7.76930266423419        1.45570858679545        0.08892840886028
C           -8.85093122066365        1.96871062369565       -0.62473378247836
C           -9.11419119210890        3.32487373382954       -0.60675489435461
C           -8.30361352117503        4.18716463355812        0.11311764894220
C           -7.22684235014249        3.68156731532333        0.82293202418349
C           -6.96055567665711        2.32600190087472        0.81803256283880
C           -8.59090657695217       -0.81759546134497        0.13753435321847
C           -8.58358833744988       -1.98449744433633       -0.62471204583730
C           -9.65409102325176       -2.85606174590209       -0.56894563270877
C          -10.74640178024483       -2.57491343554529        0.23532898979108
C          -10.76045158926100       -1.41268723129268        0.98885161509200
C           -9.69113912199401       -0.53889320922864        0.94630409975424
C           -5.21391601581793        0.32356209110516       -0.64275741126597
C           -3.91368200081315       -0.12707579032028       -0.67144175852202
C            0.06197861150389       -1.23271522408277       -0.89331903560963
C            1.13283011166641       -0.36813588958982       -0.99722541982701
C            3.57267939274879        1.30790457624657       -0.34378718417410
C            3.84204980191902        0.12088302799951        0.34143380941104
C            5.13507562815003       -0.32856261163140        0.48240998422305
C            6.20584819065128        0.38932874310118       -0.06304394049404
N            7.50698195580378       -0.07113617388080        0.07408625502389
C            8.57734340811875        0.83199587128755        0.17344879373983
C            8.44752238107084        2.00507172873296        0.91498259030380
C            9.50842212529193        2.88453436986367        1.01323021077923
C           10.71143991589134        2.60523964394831        0.38573871572441
C           10.84653104965966        1.43704797411269       -0.34629298491180
C            9.78872322962987        0.55527401421352       -0.45754517081397
C            7.77369853043245       -1.44826673571407        0.13032885920244
C            7.08510610734368       -2.33623412265036       -0.69448428164028
C            7.35616651309075       -3.68966613551910       -0.63694816749487
C            8.31954560083133       -4.17543510540291        0.23189780584809
C            9.01127619047840       -3.29548995516673        1.04796359714014
C            8.74146586864523       -1.94119036264901        1.00364890288456
C            5.93729494451916        1.58455550032230       -0.74097531033110
C            4.64509439864741        2.03611551154096       -0.86613808987172
H           -0.08281267081704        2.21734934093927        0.80518610584717
H           -1.98993976889682        0.65909639993503        1.02372378268119
H           -4.28384041467234       -2.97927022300673        1.09274313103249
H           -6.61009550271369       -2.16319507211122        1.18536525487599
H           -9.47912728391971        1.29769099024637       -1.19205835558220
H           -9.95386634344921        3.71124434491476       -1.16522638482459
H           -8.51038791814685        5.24640798967183        0.12213545817244
H           -6.59412949076102        4.34600224151326        1.39252352298233
H           -6.12845805484055        1.93143013030824        1.38264221809474
H           -7.73755399252734       -2.19902715908152       -1.26106873789329
H           -9.63821545790135       -3.75661712340175       -1.16469235320985
H          -11.58205973078850       -3.25690313318560        0.27375081467683
H          -11.60661348092699       -1.18766575482675        1.62104183820717
H           -9.69923699407670        0.36363294973466        1.53980798415043
H           -5.48007214233132        1.23558708373901       -1.15634624779065
H           -3.17135762585413        0.43037219070301       -1.22340992909731
H            0.08820847180264       -2.20399111081138       -1.36479587672556
H            2.00371410973395       -0.64932318985517       -1.57135346450436
H            3.03612523431247       -0.43503075369604        0.79713984933885
H            5.33315204608143       -1.23675890487166        1.03222979687370
H            7.51408075713096        2.21799293252312        1.41507307489321
H            9.39690736433908        3.78963664587478        1.59160559457123
H           11.53898740800812        3.29321105272048        0.46790620735095
H           11.78006480459674        1.21327601972621       -0.84095757423710
H            9.89229763278822       -0.35232006566051       -1.03407032124486
H            6.34242593153971       -1.95702354475825       -1.38112692432219
H            6.81718953530635       -4.36814658637407       -1.28143431259325
H            8.53053009393483       -5.23313072411157        0.27190204425101
H            9.76151501040182       -3.66637823923956        1.73046625014570
H            9.27584495189005       -1.25643075956323        1.64576866428704
H            6.75340931441231        2.14586989084396       -1.17105335447155
H            4.43288257863543        2.95661698110628       -1.38923797242841
