105
 energy: -161.041990869696 gnorm: 0.000063194010 xtb: 6.7.1 (edcfbbe)
C            3.25418622983677        8.88474294882502        2.28833674794746
C            2.65008393915838        7.73047053567959        2.76298312397892
C            1.67872133984736        7.09160473778174        2.01775451070093
C            1.29756646954675        7.60253333222092        0.77488511680782
N            0.31904143088592        6.95515187094772        0.01563564844339
C           -0.58861540742098        7.69668660380368       -0.74455780490374
C           -1.02548691132343        7.22253304740902       -1.98379987042494
C           -1.92415460796209        7.95772957500719       -2.73139863022149
C           -2.39913590379399        9.17340084623378       -2.26338692434410
C           -1.97046459141816        9.64793578842793       -1.03313468457185
C           -1.07548627408595        8.91903093649131       -0.27500111043471
C            0.25340655400920        5.55865081179568        0.01429282169801
C            1.42622054205977        4.79132325025174        0.02463171853426
C            1.36138722692287        3.42014151301715        0.02510808090494
C            0.12395507422683        2.75664309014574        0.01239962127535
C            0.05763006641870        1.31559463170834        0.01044884662801
N            1.20581580828870        0.62327887624293        0.00804500869425
C            1.10705033005409       -0.71126086439771        0.00375907602968
C            2.32419856136689       -1.48921113290386        0.00064327257486
C            2.28200955322130       -2.89194919114779       -0.00085929404643
C            3.43853337123232       -3.63198265942521       -0.00640803259812
C            4.68860082189949       -2.99838129569459       -0.00639789581347
N            5.86600983579083       -3.75095115687423       -0.01007886527101
C            5.93463171587270       -4.93940957567359        0.72287424604871
C            6.63708224037009       -6.03947249254289        0.22551468623169
C            6.69819401614277       -7.21155853213778        0.95333811164480
C            6.06026873773566       -7.31065075943868        2.18034080818968
C            5.35965115505990       -6.22237129013511        2.67763338657841
C            5.29568266390079       -5.04393208516239        1.96038244531658
C            6.96945340372381       -3.31732325018336       -0.75022641901380
C            8.26594465579287       -3.50778011668824       -0.26655586879354
C            9.35234695544360       -3.07752370508343       -1.00259383619192
C            9.16843404683991       -2.44791872342316       -2.22405608734689
C            7.88351374719063       -2.25214766376783       -2.70677358434792
C            6.79001617315369       -2.68315558518345       -1.98168062300415
C            4.73739296826640       -1.59781714605810       -0.00300157725636
C            3.57900046420808       -0.86069240635288       -0.00139990440673
N           -0.06410585384498       -1.36072465288246        0.00147882935164
C           -1.17267187148011       -0.60655681763478        0.00543130005485
C           -2.45487189007772       -1.26940101227037        0.00440524230582
C           -2.54164426908339       -2.67043183390110       -0.01550021909761
C           -3.76078324383764       -3.30185970700583       -0.01437594469731
C           -4.94750733999396       -2.55653545288803        0.00339373141011
N           -6.18991456275242       -3.19692314686039        0.00414339129369
C           -6.37720393460233       -4.35608291451316       -0.75358468865426
C           -5.75306129837642       -4.49768969673427       -1.99514428951470
C           -5.93732299292952       -5.64727038622934       -2.73798169685384
C           -6.74526796351636       -6.66915563454956       -2.26317905112945
C           -7.36751577076338       -6.53367095101007       -1.03159695895121
C           -7.18626504229849       -5.39075988743933       -0.27801820509468
C           -7.24132739272914       -2.67314156753506        0.76148648824230
C           -8.55353516383290       -2.72553752772351        0.28546581719528
C           -9.58683668832851       -2.20168768536772        1.03716875361414
C           -9.33331710849498       -1.61455645680994        2.26730926822857
C           -8.03240150052314       -1.55768409905834        2.74357726534343
C           -6.99199710652911       -2.08252905022476        2.00247518279534
C           -4.86787904008423       -1.15732715835607        0.02093300213891
C           -3.64741680025933       -0.52892377927471        0.02303115477064
N           -1.14766242882713        0.73161266192060        0.01035907590637
C           -1.04701866972380        3.53147566033409        0.00057633032426
C           -0.98521326550556        4.90285308123290        0.00305716942148
C            1.91290313646573        8.76286173772267        0.29932183835360
C            2.88053048511064        9.39551964806275        1.05468279633975
H            4.01145299848537        9.38167794281203        2.87546726863205
H            2.93184703139229        7.32835939346167        3.72497912007844
H            1.20074297702478        6.19816563505065        2.39214867322916
H           -0.64638527440490        6.28138437137213       -2.35429267328355
H           -2.24956060959753        7.58226868109677       -3.69047580831122
H           -3.09943926359910        9.74557682416743       -2.85270186291252
H           -2.34289503442029       10.58935325969495       -0.65696231719962
H           -0.75379055018397        9.28322185132557        0.68955959184605
H            2.38433017110579        5.29089334104300        0.01875140318476
H            2.26161002070516        2.82517989559794        0.02450572355477
H            1.31750942668064       -3.37591847284316       -0.00857606190807
H            3.39350447541642       -4.71140534562277       -0.02328049355950
H            7.12151035268374       -5.96829385747738       -0.73715433538230
H            7.24004177309126       -8.05692959039640        0.55557578396648
H            6.10825428828934       -8.22931257791143        2.74506121927372
H            4.86495132996088       -6.28879507712315        3.63546970499412
H            4.75877166615920       -4.19280792697191        2.35306154765348
H            8.41013751700597       -3.98375343551361        0.69210258685580
H           10.34957346950612       -3.22646574266909       -0.61552244305746
H           10.01999713401432       -2.11144532311641       -2.79569426544081
H            7.73127815899611       -1.76729517019533       -3.65985487591991
H            5.78977713592962       -2.54123487881607       -2.36406558942713
H            5.69728872620849       -1.10194022301135        0.01109416191093
H            3.61160540579006        0.21785574509447        0.00900499969607
H           -1.62529502368513       -3.24030394821317       -0.02083959735265
H           -3.81419598096112       -4.38106007315165       -0.01418700102299
H           -5.13341497114599       -3.69680657573500       -2.37131041515670
H           -5.45283096402578       -5.74237227787508       -3.69863837910264
H           -6.88789731975352       -7.56488057083058       -2.84837745461234
H           -7.99188669744586       -7.32841813238566       -0.65079066976447
H           -7.65984884013115       -5.29302817874593        0.68772462147884
H           -8.75086319442492       -3.16846263697586       -0.67957667345413
H          -10.59639704621694       -2.24364521649063        0.65562366442276
H          -10.14324134395201       -1.20378757801303        2.85074061748443
H           -7.82665765680637       -1.10752416426764        3.70360106963719
H           -5.98005026098349       -2.04778090264447        2.37878877415920
H           -5.77883000220306       -0.57621844499888        0.01971742908016
H           -3.58176430532619        0.54813707850638        0.02864165076377
H           -1.99818964720433        3.02179081833106       -0.00008378494997
H           -1.89325801455464        5.48847537547400        0.00934264383441
H            1.63381265189564        9.15310487240128       -0.66825393984763
H            3.35262557254901       10.28907037682433        0.67363063728177
