105
 energy: -161.120004097683 gnorm: 0.000048524404 xtb: 6.7.1 (edcfbbe)
C            2.03849116050825       -9.33167290437846       -2.10503225985859
C            2.61703898401292       -9.50327396866675       -0.85781313630798
C            3.08208567144912       -8.41341101269683       -0.14629356120556
C            2.97881699201507       -7.13072806789829       -0.68219089175577
N            3.46515469757558       -6.02360243462694        0.03277779990754
C            4.67122878428019       -6.15091510326176        0.74274804150692
C            4.80801215141289       -5.58548908193815        2.00963409803490
C            5.99422565500875       -5.72048044177226        2.70582862191416
C            7.05351948630658       -6.42503558754554        2.15641629238414
C            6.91878643564594       -6.99474719905868        0.90056965149604
C            5.73894098537170       -6.85871719355197        0.19354254445320
C            2.77160016909957       -4.82213152956132        0.03259661930420
C            1.37355367221395       -4.80375407914068       -0.04916696622096
C            0.68849889451694       -3.61110659970590       -0.05167851305984
C            1.37143839624061       -2.39535881702027        0.02113988652782
C            0.64441242514155       -1.13258820601794        0.01031704269067
N           -0.68701461164645       -1.17804377047771        0.03299750031904
C           -1.30881550051982        0.00058257490970        0.03677542509388
C           -2.76483420106691        0.00452920164686        0.08366964910135
C           -3.47573695319044        1.20450518404223        0.01453181201658
C           -4.85021168482603        1.21174370225429        0.06123604582144
C           -5.56548769285181        0.01342376544649        0.18122716793623
N           -6.95158787840852        0.01787904531133        0.23011714959348
C           -7.64376869061491        1.09619350407404        0.80668642634689
C           -8.82313466175348        1.56288917325056        0.22847433316312
C           -9.51085652122618        2.61421767065614        0.80470943343826
C           -9.03229811101096        3.21817295523837        1.95621947694906
C           -7.86020472256943        2.75738560337975        2.53418654502405
C           -7.17005193875770        1.70122884246837        1.97006064818341
C           -7.68851819947313       -1.05814457194749       -0.29361069746365
C           -8.81954239246801       -1.52556120635968        0.37353129668520
C           -9.55137040915760       -2.57436048336190       -0.15072107021940
C           -9.16494730101719       -3.17485620582696       -1.33805346757618
C           -8.04089059555896       -2.71348366775005       -2.00419901925450
C           -7.30774142271170       -1.65964652240218       -1.49232734737150
C           -4.85124180542068       -1.18950104973393        0.25033064963928
C           -3.47685654896444       -1.19105473497280        0.20044547648776
N           -0.68272265463719        1.17625653137143        0.00032832200717
C            0.64824727831710        1.12523326336924       -0.03580699454515
C            1.37873550291197        2.38423328348855       -0.09221843130580
C            0.70574726826032        3.60372423011918        0.00729437140814
C            1.39378923714678        4.79340340663327       -0.04500636977092
C            2.78521011683210        4.80562055533892       -0.20640702956814
N            3.48189771934095        6.00312620877384       -0.26293917128183
C            2.88342300139281        7.15766977294549       -0.79519246218628
C            2.08131332863531        7.08047789617827       -1.93293355135161
C            1.50004946701616        8.22213281715005       -2.45145569735174
C            1.71719390625867        9.45337540201057       -1.85387274307975
C            2.52175965015714        9.53568186809625       -0.72887354910422
C            3.10010360609768        8.39828874844003       -0.19776805144141
C            4.80084189707411        6.08597354762269        0.21603409146541
C            5.75355886800264        6.82868736973294       -0.47916456397174
C            7.04736466941631        6.91947100928647       -0.00145442431481
C            7.41042402437113        6.26970297707447        1.16720616000961
C            6.46575820701745        5.53155466346599        1.86214870331161
C            5.16752607787585        5.44155857993900        1.39655832782396
C            3.45861171468751        3.58154409522531       -0.30887592169908
C            2.76618921623743        2.39483970542861       -0.24987894070024
N            1.35370308352690       -0.00517496038308       -0.02242773957016
C            2.76521370163581       -2.41243186134107        0.10443776353860
C            3.45502080100605       -3.60225734133578        0.11344181453955
C            2.40346049456000       -6.96324765776970       -1.94108009258572
C            1.93398761916534       -8.05822173388417       -2.64141578474355
H            1.67305776028455      -10.18458478081142       -2.65682409109986
H            2.70052096084474      -10.49202545346108       -0.43108244433697
H            3.52706035227359       -8.54766183850791        0.82876026142726
H            3.97859762061542       -5.04527560317702        2.44252336382873
H            6.08771458950027       -5.27952492927431        3.68752186706869
H            7.97753799486985       -6.53067882310698        2.70463471758995
H            7.74039665294318       -7.54321179179163        0.46380083695043
H            5.63653529388684       -7.29750190901736       -0.78821346470696
H            0.83338660329599       -5.73754663570108       -0.09996077163761
H           -0.38899218713781       -3.59698592596910       -0.10562521058425
H           -2.92489378181014        2.12649364212547       -0.08838757424694
H           -5.38805872047411        2.14580424153877       -0.00623337357849
H           -9.19371371813233        1.09716094822213       -0.67294241032226
H          -10.42244043149165        2.96850830475194        0.34630817497373
H           -9.57020850463464        4.04120658911762        2.40199413422735
H           -7.48350725974531        3.21704958458419        3.43624576823494
H           -6.26182218765175        1.33607724343211        2.42735381038963
H           -9.11781976630644       -1.06249800530917        1.30275261673912
H          -10.42477614908800       -2.92949026481983        0.37619655915138
H           -9.73699181445253       -3.99595651117897       -1.74295314167956
H           -7.73621431174472       -3.17088267355879       -2.93418969185940
H           -6.43770972721512       -1.29364850568280       -2.01797489911012
H           -5.38882054895892       -2.12038470681031        0.35417183311800
H           -2.92630582311754       -2.11673089718463        0.26441118339187
H           -0.36493180555124        3.59429988059597        0.14040934679560
H            0.86248518263314        5.72888382094943        0.04857428117663
H            1.92058226860239        6.12265463033698       -2.40622202511810
H            0.88058543708958        8.14963445383131       -3.33347559358615
H            1.26385060840776       10.34328718592909       -2.26372855797430
H            2.69443413366119       10.49105718084977       -0.25542016413798
H            3.72182114929207        8.46235552055229        0.68326511309906
H            5.47239397509648        7.33004664436100       -1.39374134884929
H            7.77806405324215        7.49521959739740       -0.55026520531883
H            8.42285751055291        6.33954541733688        1.53533804636823
H            6.73814685292194        5.02833418662015        2.77837038411752
H            4.42882471014184        4.87416617664574        1.94401548411480
H            4.52985966451025        3.57525066032147       -0.44569736034334
H            3.28358309602773        1.45223272722373       -0.33877770153830
H            3.29174064504760       -1.47208034420066        0.15524244248059
H            4.53350278031132       -3.60130846340913        0.17071194034570
H            2.33110331275199       -5.97205779120289       -2.36478409416479
H            1.49146400865683       -7.91553894254044       -3.61646578059062
