105
 energy: -161.119951864490 gnorm: 0.000068997340 xtb: 6.7.1 (edcfbbe)
C            3.55354701277146        8.98842823120146        1.70596714480098
C            3.01290643612892        7.88331800761884        2.34362281795416
C            1.94609476692203        7.20538689921701        1.78466791808567
C            1.41112024406543        7.62301660691554        0.56688328761341
N            0.32136623777138        6.94333106259161       -0.00332367529426
C           -0.69483757082984        7.69017589773812       -0.62285798899819
C           -1.27126730884336        7.25014573630990       -1.81367718202837
C           -2.26654994912140        7.99319267990600       -2.41972077747567
C           -2.69291626217626        9.18562067206752       -1.85719810002885
C           -2.11623474852704        9.63100233818712       -0.67871448679639
C           -1.12670697310573        8.89023296453755       -0.06034163132155
C            0.25736436699207        5.55801552884136        0.03045060559588
C            1.42572449664699        4.78637108156729       -0.00582118870853
C            1.35775215145118        3.41291628443612        0.01614755468616
C            0.12515667265839        2.75921731286396        0.07423961506232
C            0.05664316960867        1.30389193948232        0.07481665910601
N            1.20337528972752        0.62553069552026        0.06617298748397
C            1.09370699450654       -0.70216555639440        0.03870155282678
C            2.32056029641537       -1.48750892317676        0.02960021767375
C            2.27574536146967       -2.87835838852560       -0.08702361321048
C            3.43308440836912       -3.62102772483757       -0.09863896365364
C            4.68249499080386       -2.99712977501242        0.01250063183583
N            5.84933169379423       -3.74593059769060        0.00422512002283
C            5.86154376849927       -5.05533088527123        0.51668660606577
C            6.56877698595583       -6.05902969094101       -0.14272197254059
C            6.59227189431010       -7.34291465171413        0.36864649311389
C            5.90995997814253       -7.64500705759847        1.53613564718052
C            5.20598856467225       -6.64974491838433        2.19500064139446
C            5.18272215010377       -5.36137351680204        1.69509785622391
C            7.04276142354242       -3.21482831962765       -0.51334767586563
C            8.25779316423252       -3.47755473755366        0.11749077636997
C            9.43370165649164       -2.96685597888034       -0.39884736038894
C            9.41592801387862       -2.18356347482260       -1.54157933271905
C            8.21050998739429       -1.92121983784964       -2.17265492202357
C            7.03061457485788       -2.43585821967446       -1.66954605647456
C            4.72570169595769       -1.60219462207536        0.13361375611745
C            3.56540623581245       -0.86398982578258        0.13834915712308
N           -0.06726780993813       -1.35596255973808        0.01608551316504
C           -1.16225389590967       -0.59715436145300        0.04333860734956
C           -2.45682502896970       -1.26599233222451        0.03396277209194
C           -2.53854349153637       -2.65814006808303       -0.03862442760411
C           -3.75914090241309       -3.29199008861927       -0.04907485552830
C           -4.94647887810247       -2.55207472496888        0.01716759559528
N           -6.17923485924800       -3.18869786193303        0.01142161806121
C           -6.36028408804303       -4.38775182632901       -0.69834762775723
C           -5.78284097289012       -4.55883920662657       -1.95574497353595
C           -5.97266445840507       -5.73703136085058       -2.65275204229782
C           -6.74512206502391       -6.75373469928803       -2.11440557899899
C           -7.32626556689428       -6.58495250760898       -0.86796373714842
C           -7.13487166442455       -5.41371770410419       -0.15951821133691
C           -7.26736415369667       -2.64412103646122        0.71380473483746
C           -8.54886808117222       -2.68486626676309        0.16681392437801
C           -9.62001747819766       -2.16205633116697        0.86654425158643
C           -9.43030097186195       -1.58684670408241        2.11268099655998
C           -8.15786881788319       -1.54348227366056        2.65970357804630
C           -7.08207348217582       -2.07170489347248        1.97155510500347
C           -4.86335796730810       -1.15588831955955        0.08995977374327
C           -3.64015805637326       -0.52718139941459        0.09610903627710
N           -1.14829036110270        0.73493917106765        0.07591449390310
C           -1.04005650278923        3.52752216173052        0.11832728582648
C           -0.97797106255113        4.90131033110080        0.09774953997568
C            1.95910107662470        8.73393708315952       -0.07220684268678
C            3.02034999854101        9.41071152571451        0.49883451537880
H            4.38416894286996        9.51769777949017        2.14801670175933
H            3.41779348576876        7.55068313766245        3.28821833183179
H            1.51827266943675        6.35051108825735        2.28794791347566
H           -0.93127034753468        6.32631902834267       -2.25904836904163
H           -2.70501914077040        7.64182101479964       -3.34236298588842
H           -3.46852892502336        9.76452200130492       -2.33549574547997
H           -2.44421619170494       10.55824451396555       -0.23232889263198
H           -0.68229901676599        9.23518658634764        0.86182681502884
H            2.38505785506685        5.27875586065270       -0.06558695152323
H            2.25692927311127        2.81820946446718       -0.02625376894642
H            1.31436965110062       -3.35893563934674       -0.18105073237303
H            3.38433534118762       -4.69468424301972       -0.20431928648644
H            7.09583231467142       -5.82499483531851       -1.05609189338389
H            7.14096638902675       -8.11351135048481       -0.15263745896600
H            5.92761456183305       -8.64956691252029        1.93112869623223
H            4.67724021277973       -6.87482377224579        3.10967626397620
H            4.64169739270294       -4.58353876065168        2.21415381329471
H            8.27179366654190       -4.08175886372204        1.01281423686938
H           10.36865373053298       -3.17514931797373        0.10031828838939
H           10.33560872400159       -1.78194475437981       -1.93945529292546
H            8.18808999303704       -1.31873232300706       -3.06901011873066
H            6.09302878798541       -2.24112222229697       -2.16965556773263
H            5.68041335080159       -1.10751396518602        0.23388577322845
H            3.59847115275474        0.20960588999969        0.24016699740327
H           -1.62356531746461       -3.22850681772574       -0.07706979470541
H           -3.80801421686869       -4.36982212445939       -0.09668593762575
H           -5.19044468658881       -3.76179955538435       -2.38113141927400
H           -5.52165617372658       -5.85683315054504       -3.62700855758658
H           -6.89415297488602       -7.67106620274476       -2.66377612051446
H           -7.92719435992698       -7.37369467082113       -0.43969635671254
H           -7.58308259431732       -5.28560073341139        0.81493906645327
H           -8.69702094754456       -3.12657210330627       -0.80770974057982
H          -10.60802055985387       -2.19779827813472        0.43145909648513
H          -10.26836072938453       -1.17587766963001        2.65511365961233
H           -8.00142454338896       -1.10355978145103        3.63381332956097
H           -6.09226939886826       -2.04734259328680        2.40387877054867
H           -5.77117243389945       -0.57223780570942        0.12996894618996
H           -3.57654607678946        0.54886111755404        0.14084254594355
H           -1.99122593176501        3.02161833449213        0.17611770739402
H           -1.88626520623961        5.48384664701699        0.14164347388557
H            1.54862035515166        9.05991304657125       -1.01667440624884
H            3.43762732459346       10.26921658469552       -0.00665206438684
