47
 energy: -78.842472187018 gnorm: 0.000039792307 xtb: 6.7.1 (edcfbbe)
C            7.65222135128041       -0.71038282917512        0.94648242843607
N            6.21756019861181       -0.64073801991312        0.86060356534670
C            5.30104221004754       -1.27852080678333        1.64198108473128
N            4.06446474748798       -1.03027331773644        1.32963121236088
C            4.12860379430294       -0.16544826069494        0.26618296005075
C            3.18304401056172        0.48268721749551       -0.54101514552553
C            1.73959550813908        0.35306674206249       -0.39718300907393
C            0.88970514284981        1.03189133194659       -1.27552092834866
C           -0.47810988562730        0.91970991712397       -1.15508029954909
C           -1.02978297813310        0.12290726107985       -0.15172454784428
N           -2.42912740430108        0.00522962213842       -0.02892651430436
C           -3.05811161291234       -1.23320149426923       -0.19043999149003
C           -2.35564866266457       -2.38917469508978       -0.51035930997149
C           -3.01206808925434       -3.60039970254229       -0.66861457365318
C           -4.38265083165776       -3.67719215837468       -0.52263168888096
C           -5.10318549264895       -2.52684974904876       -0.23642280728770
C           -4.45283864863524       -1.31657635507596       -0.07945246106022
O           -5.24141176049039       -0.21755928214737        0.16903371499094
C           -4.60750335021971        0.99250267665679        0.32720061563587
C           -5.40951675163367        2.08637209750990        0.59662563832094
C           -4.84329817977136        3.33568214705820        0.80423200708388
C           -3.47061986797492        3.47502803944760        0.75747455937086
C           -2.66280137864582        2.38126338488741        0.48539962625704
C           -3.21546210997883        1.12931839086789        0.24179105358344
C           -0.18646991989682       -0.55567959467514        0.72704853554601
C            1.18305570954377       -0.44331144240911        0.60683581245509
N            3.64596534010861        1.27537248587089       -1.51606934536500
C            4.94433624660452        1.42492777300601       -1.69330654947507
N            5.93081681660446        0.87299496900262       -1.00662799329878
C            5.49072872374350        0.08342774687258       -0.03374086617109
H            7.99210612586097       -0.34027534353486        1.91503203137054
H            7.98848087447769       -1.74028211385555        0.81769668972959
H            8.06443531701388       -0.08915377948093        0.15343373229066
H            5.59169028504366       -1.92922673587733        2.44455588948224
H            1.32935188752291        1.63703935662695       -2.05262700382717
H           -1.13083834802370        1.43995079570031       -1.84037717236020
H           -1.28671278417735       -2.34178819823369       -0.64513275756560
H           -2.43833948877288       -4.48163385976261       -0.91132142669280
H           -4.89816409729840       -4.61729945495967       -0.63986560673661
H           -6.17711108200338       -2.54543972444793       -0.13621288458015
H           -6.47670738976175        1.93666296855280        0.64559171153400
H           -5.47711921666523        4.18353248688490        1.01105514475926
H           -3.01256890676092        4.43557315637309        0.93695539963930
H           -1.59116803189401        2.50158205699431        0.46833248954705
H           -0.61418215819932       -1.16426113034504        1.50993096027391
H            1.83503992122195       -0.96243557523616        1.29144423011359
H            5.23927910787360        2.08140864129252       -2.50191934367868
