  47
        -78.73430663
 C          7.6234026249        0.6168650121       -1.0494695533
 N          6.1919167946        0.5723563215       -0.9427398917
 C          5.2749574961        1.1509497391       -1.7775767973
 N          4.0390130499        0.9207663125       -1.4018813445
 C          4.1186009505        0.1623103392       -0.2892764780
 C          3.1561934113       -0.4143313222        0.6024123522
 C          1.7549342580       -0.3073020661        0.4457788391
 C          0.8842540078       -0.9382463776        1.3695034361
 C         -0.4732273007       -0.8380502621        1.2382928899
 C         -1.0292273705       -0.1075665694        0.1798223668
 N         -2.4343800662       -0.0053060551        0.0429474711
 C         -3.1961642393       -1.1277226616       -0.2352494074
 C         -2.6205133860       -2.3828880288       -0.4303451871
 C         -3.4108762139       -3.4849360642       -0.6978120870
 C         -4.7875968712       -3.3592102728       -0.7854049988
 C         -5.3762489315       -2.1162648716       -0.6211264906
 C         -4.5922889093       -1.0065649513       -0.3541981216
 O         -5.2298892307        0.1956986558       -0.2280061806
 C         -4.4642872200        1.2968857110        0.0355736442
 C         -5.1201456033        2.5092507320        0.1673904913
 C         -4.4041032399        3.6577586101        0.4615172416
 C         -3.0320837134        3.5861170157        0.6385603901
 C         -2.3688046423        2.3804891301        0.5071706741
 C         -3.0683086729        1.2175733831        0.1863826923
 C         -0.1844526595        0.5181538850       -0.7458841507
 C          1.1754455620        0.4184074763       -0.6211830756
 N          3.6698616971       -1.1222447709        1.6424524495
 C          4.9436319825       -1.2809700232        1.8256842157
 N          5.9164825510       -0.7784919073        1.0590689247
 C          5.4752021340       -0.0724523075        0.0132260485
 H          7.9720364584        1.6513608367       -1.0480595293
 H          8.0431061562        0.0912891487       -0.1937739602
 H          7.9544408147        0.1317857321       -1.9702943963
 H          5.5541745471        1.7288643810       -2.6344006735
 H          1.3285127824       -1.4862860355        2.1852564259
 H         -1.1324287952       -1.3061291772        1.9559617191
 H         -1.5485636385       -2.4812812842       -0.3756505979
 H         -2.9438550104       -4.4467168862       -0.8418909342
 H         -5.4034206670       -4.2201385524       -0.9913941436
 H         -6.4430810739       -1.9820933066       -0.7013522945
 H         -6.1906438504        2.5284442399        0.0409448519
 H         -4.9199912937        4.5993284793        0.5615854073
 H         -2.4699883290        4.4733577480        0.8850063336
 H         -1.3029694806        2.3254730072        0.6574486462
 H         -0.6225768112        1.0660341548       -1.5683554625
 H          1.8304583948        0.8878557600       -1.3379645101
 H          5.2612239425       -1.8619570606        2.6796162096
