47
 energy: -78.771201996506 gnorm: 0.000147782436 xtb: 6.7.1 (edcfbbe)
C            7.63971841211705       -0.64804392549135        1.00120479456755
N            6.20587764341366       -0.58876181544474        0.90804326201741
C            5.29415458864514       -1.17815389439186        1.74000435960946
N            4.05311926314151       -0.94210225311004        1.38119510584075
C            4.12818845789999       -0.16448988118317        0.27561159686454
C            3.15677346450055        0.42430121608310       -0.59244085143349
C            1.75540502675364        0.31588530604626       -0.43583831691402
C            0.87917989000145        0.96400884803638       -1.34456549517254
C           -0.47818462280399        0.86378694854551       -1.21231346375478
C           -1.03327882664286        0.11027889874970       -0.16798964591008
N           -2.43849615751289        0.00139444755194       -0.03454895263254
C           -3.06950933667489       -1.21764362669152       -0.21638810526465
C           -2.36775121173118       -2.37428975709625       -0.56178847044289
C           -3.03173806105090       -3.57368395089443       -0.73088714679430
C           -4.40794713174245       -3.64812399328072       -0.56874773774675
C           -5.12642619546092       -2.50836805955049       -0.25287502794124
C           -4.46933089745811       -1.29936662609735       -0.08244191989222
O           -5.23349394709124       -0.20556606736701        0.20114125590230
C           -4.60067281069338        0.99054159071888        0.37252439608699
C           -5.38903987918959        2.09238824617334        0.66705343816011
C           -4.80127689609291        3.32720257168104        0.87929735565176
C           -3.42118661395239        3.45580097865897        0.81109064756707
C           -2.62732718966789        2.36468331242459        0.51580138303711
C           -3.20124504588952        1.11529761597616        0.27196724337801
C           -0.18529898914221       -0.53342609857600        0.74367110593472
C            1.17443922127637       -0.42949793248948        0.61904825345733
N            3.66156182460079        1.15480258972732       -1.62931503098877
C            4.93800484117451        1.30736176983038       -1.81069802117115
N            5.92464849114558        0.79521418923563       -1.06789417245613
C            5.47994723573405        0.07112345196369       -0.03217651052794
H            7.97496052289243       -0.24892753535361        1.96043403161096
H            7.98363114122598       -1.67982063346688        0.90375388113743
H            8.05460948297732       -0.04934090543456        0.19245628714857
H            5.57913655160674       -1.76961584024160        2.58613687803395
H            1.32142464088265        1.52819579501725       -2.15129790621989
H           -1.13561404849392        1.34734391938796       -1.92103619459859
H           -1.30011340543222       -2.31821859810739       -0.70043267856478
H           -2.46910441543527       -4.45532363899132       -0.99490487735806
H           -4.92241286411382       -4.58681479738028       -0.69801657633974
H           -6.19825778916005       -2.52908331354719       -0.13766898200445
H           -6.45670562671655        1.95578906259575        0.73001492507432
H           -5.41809225406850        4.18174035634928        1.10702793015421
H           -2.95676747367052        4.41217563340275        0.99348955443231
H           -1.55476797701651        2.46560109154572        0.47565619994838
H           -0.61775019584603       -1.09754540314664        1.55796463297496
H            1.82911035286346       -0.91234539850757        1.32806984148667
H            5.24790197819244        1.90464997719865       -2.65842201607846
