59
 energy: -74.525883498462 gnorm: 0.000063248052 xtb: 6.7.1 (edcfbbe)
C            2.59427816516704       -4.59842488512322       -1.31180105388483
C            1.24338160004885       -4.23165811982327       -0.70702641282274
C            0.14772875699455       -4.16786253377119       -1.76990244701348
C           -1.25151600508520       -3.92857334912383       -1.19736495487806
C           -1.42856560465563       -2.60692591001400       -0.44677272042691
C           -1.27056561914690       -1.38253302649744       -1.34606965011557
C           -1.45348151958617       -0.05437526594061       -0.58651536089564
C           -1.27334893225862        1.12325641476198       -1.56319635887321
C           -1.45704441646803        2.48262651455677       -0.89148091740578
C           -1.19972134128096        3.65827539413005       -1.83661600812410
C            0.23611358785066        3.77096681463881       -2.35562974439565
C            1.27591118505925        3.95004653263959       -1.25072118653763
C            2.67184570536520        4.17663157681725       -1.82092883041230
C           -2.78119448010581        0.00548907585257        0.13058836404126
C           -4.05357947272819       -0.03952118669660       -0.39908278325424
C           -5.14071134448877        0.03416062579964        0.46213365137724
C           -4.95631439081958        0.14931166722068        1.83191997282884
C           -3.68140808456187        0.19477565503213        2.37336079440253
C           -2.59509301625012        0.12272246967687        1.51667253535837
C           -1.16684313538126        0.14705164651352        1.78864254109964
C           -0.46710150780772        0.24660428410607        2.98041764076036
C            0.91850816602195        0.24799169656775        2.94760218877168
C            1.57476944718334        0.15231309681686        1.73143175405474
Br           3.49656054092017        0.15902029944722        1.70839765795040
C            0.89357381772423        0.05124116474926        0.52644075240157
C           -0.48378622112918        0.04722637909788        0.56608221344700
H            3.36237333148337       -4.63028280686402       -0.54174495546553
H            2.54793020798611       -5.57439411421383       -1.79122134322487
H            2.89019432985060       -3.86465226950172       -2.05928368715078
H            0.97051376114030       -4.97342633088759        0.04793530964347
H            1.33151874879144       -3.26618268275629       -0.20567209358819
H            0.13316943375834       -5.11771943736021       -2.31150776572213
H            0.39254336334947       -3.38919458085226       -2.49455261725468
H           -1.49061296878263       -4.74591267821347       -0.51184501051045
H           -1.97367713257514       -3.96670523130215       -2.01727950173625
H           -0.71232514987600       -2.55334756617705        0.37478085169904
H           -2.42823722269667       -2.59453108629241       -0.00482843120291
H           -2.00464299410017       -1.43166269479538       -2.15283081861324
H           -0.27681006151554       -1.38232412800147       -1.79506590506097
H           -0.27222836754034        1.05712604680106       -1.98997870587948
H           -1.99359806680923        1.02287696675818       -2.37755297306261
H           -2.48162824704617        2.55823375742595       -0.51807090537979
H           -0.79402808343713        2.55693175799798       -0.02785137691958
H           -1.87359297068527        3.57651723271496       -2.69357900736795
H           -1.45137273470165        4.58169434172316       -1.30843275199310
H            0.48904472933823        2.89045576025491       -2.94915450403073
H            0.28662674048839        4.63405524253505       -3.02517538047809
H            1.29526645454069        3.06461590092485       -0.61287149830970
H            0.99576978936624        4.80228267264829       -0.62635785000130
H            3.39937639020957        4.28611201417062       -1.01919109769024
H            2.69583719164399        5.07681929627345       -2.43211453587482
H            2.97238358362231        3.33457958286774       -2.44169825415166
H           -4.20966161636097       -0.12964976748187       -1.46408018274440
H           -6.14318609395698        0.00068903819383        0.06031400983557
H           -5.81673793141204        0.20469423013727        2.48317481683828
H           -3.54051054321413        0.28489568745161        3.44028817910735
H           -0.98291505917941        0.32254759170848        3.92534271034583
H            1.48755769249218        0.32361150867960        3.86195172407950
H            1.43602401938566       -0.02239768420879       -0.40378277217675
