59
 energy: -74.416762482612 gnorm: 0.000163545776 xtb: 6.7.1 (edcfbbe)
C           -5.03520396492902        2.28742251571091       -1.16532156385647
C           -5.07348171593301        2.85028292705412        0.25167557575207
C           -3.71332896545560        2.81217542947009        0.95052391972806
C           -3.24208910412358        1.39483744486805        1.26747930738717
C           -1.88616426393015        1.39191201000794        1.96703803999688
C           -1.37730859434424       -0.00276689189672        2.33773093666944
C           -0.87035234194739       -0.86179396449487        1.15323123746247
C           -0.16136928655986       -2.10328817271298        1.74421780064643
C            0.16473340403553       -3.21629365584835        0.74550093277247
C            1.28930446300796       -2.91638320933178       -0.24623118863192
C            2.65829169932200       -2.74762164480817        0.40835155629882
C            3.77046460924397       -2.60594594219314       -0.62867823758975
C            5.13695037213574       -2.42165689684550        0.02166304400230
C           -1.98349839900690       -1.25383175306041        0.21260496063464
C           -3.08589610309279       -2.02027871744657        0.44696825606413
C           -3.99623911924495       -2.25716240564316       -0.59616624169735
C           -3.77845018420146       -1.71106478354399       -1.87865061781959
C           -2.68232948138189       -0.94724791652687       -2.15277906833088
C           -1.73518196099584       -0.69870246311819       -1.10955038813636
C           -0.54803297447280        0.00628908306628       -1.09252720213943
C            0.14400669128902        0.74306412427520       -2.11329526369802
C            1.30827478081776        1.37066742785991       -1.80604321294463
C            1.83859441882208        1.30100878561586       -0.49245641394940
Br           3.46209016667546        2.20683961991848       -0.10817895371293
C            1.18746181248481        0.58381332971486        0.53826367445830
C            0.02826445365209       -0.05666053544439        0.24635277229260
H           -4.79243526306939        1.22772029391239       -1.15934814700137
H           -6.00318416556220        2.41104565971115       -1.64681581376785
H           -4.28685585627154        2.80764111765123       -1.76025464982331
H           -5.41404068832569        3.88821902651269        0.20882117432565
H           -5.79941200487169        2.28921330724692        0.84519248411252
H           -3.77913154716784        3.38111285193634        1.88215147620414
H           -2.97100425148763        3.30416371373511        0.31642065463366
H           -3.16871129544500        0.82693048983441        0.34084113475618
H           -3.98111202332292        0.90014836425217        1.90311003525141
H           -1.96722001084032        1.97780040008538        2.88721376249630
H           -1.15215317399409        1.89015711326995        1.32921256513453
H           -2.17246346672852       -0.55027249765964        2.84757158795657
H           -0.54851544685010        0.11144987667153        3.04044928153096
H            0.75136583175852       -1.77830465871267        2.24433813183554
H           -0.82053133559525       -2.52471472100567        2.50695031669801
H            0.44141726815378       -4.10675941347659        1.31715283885402
H           -0.73913618049868       -3.45921697950265        0.18154371428088
H            1.34249473715460       -3.74695283755189       -0.95597194367813
H            1.04969675064076       -2.01813247265486       -0.81776878007835
H            2.65811623511731       -1.86063237125314        1.04384801260617
H            2.86647070251442       -3.61326646235808        1.04243545748515
H            3.55463875865360       -1.74911034316499       -1.27191740406946
H            3.78900988852969       -3.49565818664750       -1.26332473383917
H            5.38042169342294       -3.27832703515011        0.64718509285538
H            5.14802262145388       -1.52967262970760        0.64481696549881
H            5.91092341165742       -2.31823611431159       -0.73587543605961
H           -3.27277429409683       -2.44479755784758        1.42269049976956
H           -4.87300096955952       -2.85948706913040       -0.41705590323309
H           -4.50552787434950       -1.90855265745237       -2.65395962913423
H           -2.51850507907620       -0.52850825133344       -3.13371109641309
H           -0.26658625577958        0.79034521935367       -3.10948548153466
H            1.85056004095631        1.93156150598356       -2.55291453537560
H            1.62026020854380        0.56667703468496        1.52703197774378
