59
 energy: -74.520019130577 gnorm: 0.000043897395 xtb: 6.7.1 (edcfbbe)
C           -5.38671735040411       -2.48116912365663        0.70578812005482
C           -4.59239159525867       -2.02899199590300       -0.51473892347964
C           -4.75496384952631       -0.53978459917532       -0.82602994118005
C           -4.26553152745582        0.41201592326310        0.26919581212342
C           -2.79546302248264        0.25643304766706        0.67030326875769
C           -1.84695328970714        0.55225800429126       -0.48769369437359
C           -0.32698816187824        0.48840670543040       -0.17731389579478
C            0.10177475474751       -0.95558877137647        0.13291253991137
C            1.53921004107940       -1.13018825254761        0.63187175435432
C            2.60430428450985       -0.94505266454376       -0.44651550119297
C            4.02840400387430       -1.14628401132848        0.07587018382126
C            4.35516465937563       -2.59406090941495        0.43982428280126
C            5.81756142851565       -2.75728742534176        0.83971372893473
C            0.35703386160553        1.09422827308548       -1.38502704338589
C            0.39049234925386        0.63202585642912       -2.68463317787925
C            1.03395917792319        1.39380586381747       -3.65065715705599
C            1.62131506779752        2.60757190142812       -3.32538223405933
C            1.57961597250541        3.08783354238307       -2.02635885572059
C            0.94279858117113        2.32690242188744       -1.05911890407496
C            0.76384524409534        2.55530190177194        0.36467591799917
C            1.19799230532461        3.59403187118178        1.17259519609238
C            0.93913310726802        3.54116783717389        2.53226246185702
C            0.26991842569671        2.44712406777863        3.05493101037738
Br          -0.04692879642022        2.37204630591742        4.94952018324618
C           -0.17695884338097        1.39818620277622        2.26362671634466
C            0.05688920472064        1.46812567389305        0.90556279582259
H           -5.31412924365663       -3.56060740899318        0.82435906602317
H           -5.01070258117701       -2.01564925327322        1.61333569058663
H           -6.43728330924959       -2.21919558201811        0.59479027137017
H           -3.53701994823160       -2.26512880451353       -0.36942864202548
H           -4.93385120792087       -2.59522050017006       -1.38569330654970
H           -5.81524393176733       -0.33428105675417       -0.99794522683435
H           -4.23091348949481       -0.31798825662589       -1.75813349346459
H           -4.88008286894458        0.27408746406435        1.16116981294724
H           -4.42659754003474        1.43672813870429       -0.07734630612162
H           -2.63134105464707       -0.75118696863779        1.05159944671952
H           -2.60139673253936        0.95932808370227        1.48263656448965
H           -2.06842442061412        1.55578358866561       -0.86233764065809
H           -2.03504663450040       -0.15256463971128       -1.29815456021431
H           -0.56479231081048       -1.34526258000524        0.90376335270242
H           -0.04017246951630       -1.55985985441179       -0.76538463493832
H            1.73213677183765       -0.43075068027520        1.44838089967509
H            1.62242626746754       -2.14072874946299        1.03777939584223
H            2.41899216324279       -1.64642026395022       -1.26394614478944
H            2.52979391150072        0.06392864220038       -0.85360033967918
H            4.72839418955022       -0.81755231758123       -0.69710783301639
H            4.18365238404230       -0.50898865296352        0.95045123253719
H            4.14086471507836       -3.23689059295276       -0.41767057330038
H            3.72336062058122       -2.92037943288405        1.26775906842362
H            6.03127826524628       -3.79248855703419        1.09758187807614
H            6.04873684357337       -2.13422463928918        1.70161553224312
H            6.47316649922364       -2.46490220993664        0.02163754057500
H           -0.06418357632481       -0.31031087422053       -2.95251235885671
H            1.07599554749601        1.03810983404225       -4.66999192501767
H            2.11454289551427        3.18484975822838       -4.09406491364029
H            2.03334833532024        4.03526789179955       -1.77568470588532
H            1.73663004687875        4.43273430161864        0.75892785207016
H            1.26541221908220        4.33731010902755        3.18424947312628
H           -0.67406538913823        0.55339941675954        2.71377988330609
