  60
        -97.77161495
 C          7.1864399300       -0.3832935848       -2.3942170413
 C          6.5233444734        0.8417121184       -2.4161290583
 C          5.3934859076        1.0646962785       -1.6526699319
 C          4.9389342996        0.0284412804       -0.8494779367
 C          5.5908226928       -1.2262750812       -0.8402804658
 C          6.7246486394       -1.4262131627       -1.6165688590
 C          4.8388342551       -2.0703018896        0.0454060955
 C          4.9898153691       -3.3842055086        0.4690619551
 C          4.0762893508       -3.8986341025        1.3669978337
 C          3.0313323658       -3.1157061787        1.8528285168
 C          2.8599966667       -1.8063008330        1.4464063859
 C          3.7618037065       -1.2907266866        0.5262061213
 N          3.8364156589       -0.0241446340       -0.0203570441
 C          2.9446645413        1.0256005945        0.2319527353
 C          3.4362875779        2.2868626145        0.5893170408
 C          2.5749274346        3.3315786953        0.8522264629
 C          1.2098650890        3.1056750826        0.7729043582
 S         -0.0500445477        4.2762854975        1.0955023677
 C         -1.2808795452        3.0759838718        0.7693435126
 C         -2.6504922671        3.2629316840        0.8613327049
 C         -3.4862099862        2.2009760371        0.5832546923
 C         -2.9638171769        0.9638187379        0.1885291957
 N         -3.8228957141       -0.1074133739       -0.0907006538
 C         -5.0477221922       -0.0517681027       -0.7357048351
 C         -5.6601942814        1.0068315946       -1.3915545135
 C         -6.8891345467        0.7806647145       -1.9826223384
 C         -7.5011459771       -0.4696070958       -1.9392768886
 C         -6.8822661963       -1.5382270081       -1.3227863478
 C         -5.6457586773       -1.3344280157       -0.7245982191
 C         -4.7255402915       -2.2057364083       -0.0539304970
 C         -4.6953825522       -3.5504531707        0.2800332068
 C         -3.5700015184       -4.0161706866        0.9415823033
 C         -2.5348346110       -3.1364204979        1.2429445804
 N         -2.5349778830       -1.8482981515        0.9386821103
 C         -3.6090483975       -1.4069304910        0.3049124159
 C         -1.5924611105        0.7756424780        0.1095099487
 C         -0.7404852209        1.8295402050        0.4110289793
 C          0.6987904327        1.8455578100        0.4190199302
 C          1.5780224223        0.8076912916        0.1386894516
 H          8.0681172824       -0.5168066051       -3.0030799536
 H          6.8990248665        1.6344447146       -3.0462000531
 H          4.8762415530        2.0114905526       -1.6920316265
 H          7.2287684966       -2.3808142424       -1.6117069413
 H          5.8087719462       -3.9852745180        0.1037947408
 H          4.1737891585       -4.9189009972        1.7070079376
 H          2.3405418261       -3.5404082957        2.5661589268
 H          2.0564200719       -1.2050326170        1.8435888230
 H          4.5021108737        2.4308408169        0.6759988262
 H          2.9527849986        4.3033019306        1.1289780302
 H         -3.0531045948        4.2175558119        1.1617573165
 H         -4.5524514374        2.3171704720        0.6964642458
 H         -5.1877096592        1.9741460802       -1.4617143396
 H         -7.3829951939        1.5925750158       -2.4954125702
 H         -8.4640151496       -0.6035078437       -2.4085143247
 H         -7.3402778424       -2.5155692089       -1.3099636458
 H         -5.5155794682       -4.2084476916        0.0327875376
 H         -3.4880175988       -5.0540403667        1.2232225429
 H         -1.6475419868       -3.4822555428        1.7559993710
 H         -1.1972179418       -0.1876941334       -0.1640864909
 H          1.2001152072       -0.1591802773       -0.1533565936
