  60
  -97.4209003535000       0.155854567169952      !
 C          4.1425950946       -3.9730626939       -1.2356145506
 C          3.1071403615       -3.2157590747       -1.7790107499
 C          2.9183934523       -1.8925951478       -1.4284202889
 C          3.7929787485       -1.3364431638       -0.5057122975
 C          4.8601398923       -2.0908488698        0.0341107056
 C          5.0289589148       -3.4191090202       -0.3340004900
 C          5.5820346669       -1.2100769328        0.9089658720
 C          6.6924115551       -1.3744985820        1.7265807911
 C          7.1237329166       -0.3015092226        2.4805168890
 C          6.4532638406        0.9189676746        2.4381847441
 C          5.3464786740        1.1068417197        1.6326802668
 C          4.9232723122        0.0396108170        0.8532448881
 N          3.8463940284       -0.0499312399       -0.0064213641
 C          2.9527830654        0.9867309128       -0.3031250509
 C          3.4479750521        2.2401816201       -0.6825555706
 C          2.5900590053        3.2844724777       -0.9568378874
 C          1.2246643730        3.0663062298       -0.8637135366
 S         -0.0294589056        4.2491898857       -1.1604554329
 C         -1.2647140432        3.0629489396       -0.8037999475
 C         -2.6335639210        3.2732135047       -0.8439300898
 C         -3.4756456740        2.2219919986       -0.5457369325
 C         -2.9580044629        0.9707051412       -0.1927043270
 N         -3.8252449281       -0.0925765999        0.0933638381
 C         -5.0052134182       -0.0376658761        0.8155021718
 C         -5.5465130128        1.0063106802        1.5519569958
 C         -6.7387443509        0.7819153452        2.2143076141
 C         -7.3824084309       -0.4521143909        2.1605504330
 C         -6.8346626791       -1.5059026849        1.4573738950
 C         -5.6358969670       -1.3042729082        0.7860331855
 C         -4.7853378245       -2.1631727422        0.0146342172
 C         -4.8154906279       -3.4877801361       -0.3919301517
 C         -3.7494166468       -3.9440529477       -1.1513317569
 C         -2.7103405634       -3.0760065492       -1.4729019290
 N         -2.6532728843       -1.8068745837       -1.1013190968
 C         -3.6721138903       -1.3748533224       -0.3769134056
 C         -1.5883187932        0.7602002004       -0.1603540454
 C         -0.7301120524        1.8068297896       -0.4706362119
 C          0.7091264911        1.8100293041       -0.5021806752
 C          1.5854683841        0.7712944604       -0.2146381872
 H          4.2547283475       -5.0048094179       -1.5336400502
 H          2.4378121734       -3.6722263570       -2.4930848795
 H          2.1219533043       -1.3118370878       -1.8683775943
 H          5.8414303581       -4.0002456026        0.0753766591
 H          7.2012528231       -2.3254836277        1.7721607733
 H          7.9862709861       -0.4073713082        3.1213042452
 H          6.8025820279        1.7352771439        3.0529776925
 H          4.8230759470        2.0510417812        1.6220912709
 H          4.5143643308        2.3793633711       -0.7705254531
 H          2.9704095892        4.2517135880       -1.2452813057
 H         -3.0306146754        4.2379714477       -1.1186088691
 H         -4.5440539303        2.3567104617       -0.6095668069
 H         -5.0465402151        1.9596812756        1.6256635810
 H         -7.1783803896        1.5816180754        2.7914884535
 H         -8.3148290380       -0.5852261607        2.6882436785
 H         -7.3192569676       -2.4701725068        1.4321303404
 H         -5.6371261679       -4.1374599398       -0.1279046529
 H         -3.7176342457       -4.9657513030       -1.4955670862
 H         -1.8682939677       -3.4159985474       -2.0610639416
 H         -1.2002066583       -0.2133380040        0.0870995308
 H          1.2052676194       -0.1914246200        0.0883847576
  60
  -97.4208115246000       0.141871969397520      !
 C          6.8178337091       -1.8897065460       -2.7331777778
 C          6.1211959030       -0.8290783770       -3.3081372096
 C          5.0952616866       -0.1912250406       -2.6374850963
 C          4.7814325901       -0.6343756585       -1.3605012301
 C          5.4661855205       -1.7264598542       -0.7792768736
 C          6.4936747943       -2.3515610818       -1.4733045607
 C          4.8627096244       -1.9498751651        0.5045498243
 C          5.1073483624       -2.8540737017        1.5298298828
 C          4.3355399728       -2.7833737263        2.6720946200
 C          3.3404780743       -1.8173837038        2.8049772057
 C          3.0780693383       -0.9071281357        1.7991672407
 C          3.8353062551       -0.9879729126        0.6390389985
 N          3.7994738525       -0.1980905414       -0.4938026549
 C          2.9175448745        0.8664754701       -0.7168403426
 C          3.4138356875        2.1058677313       -1.1384878159
 C          2.5635637710        3.1703656756       -1.3538390288
 C          1.2073005949        2.9959326031       -1.1283552235
 S         -0.0338168442        4.2161608449       -1.3084692205
 C         -1.2603046440        3.0771415867       -0.7981544267
 C         -2.6109426782        3.3439824132       -0.6438061913
 C         -3.4437462084        2.3307071672       -0.2157725021
 C         -2.9409005595        1.0482139547        0.0324573531
 N         -3.7967251648        0.0274533535        0.4673544896
 C         -5.0967872632       -0.2088038777        0.0510039731
 C         -5.8215619306        0.3767609789       -0.9774461521
 C         -7.1101687768       -0.0711369290       -1.2003512149
 C         -7.6734348838       -1.0866151318       -0.4314872926
 C         -6.9471816005       -1.7015519658        0.5682277395
 C         -5.6494707379       -1.2693125736        0.8078723430
 C         -4.6234227090       -1.7010255590        1.7115452521
 C         -4.5093654985       -2.6730609350        2.6927906834
 C         -3.2933789669       -2.7730568767        3.3503620100
 C         -2.2544259186       -1.9114633937        3.0118603465
 N         -2.3331442819       -0.9734151958        2.0814282704
 C         -3.4939089554       -0.8818769638        1.4534608888
 C         -1.5867943017        0.7870261968       -0.1105426641
 C         -0.7345597711        1.8049767652       -0.5166830418
 C          0.6921584481        1.7601791932       -0.7018940741
 C          1.5576451931        0.6916367525       -0.5070846150
 H          7.6154795306       -2.3598128168       -3.2887459229
 H          6.3869154174       -0.4994502303       -4.3017611876
 H          4.5491897731        0.6170152805       -3.1001550773
 H          7.0224433631       -3.1839003441       -1.0339427016
 H          5.8888604963       -3.5923807582        1.4321802953
 H          4.5073961502       -3.4788753086        3.4800554005
 H          2.7624316011       -1.7763930913        3.7163419934
 H          2.3159838968       -0.1526490546        1.9216408937
 H          4.4770111692        2.2273944544       -1.2767336231
 H          2.9452130244        4.1260233633       -1.6773758054
 H         -2.9990223106        4.3313969679       -0.8389101520
 H         -4.4888716838        2.5351809794       -0.0452099541
 H         -5.3915930737        1.1433326141       -1.6030307937
 H         -7.6912260713        0.3739142042       -1.9942985730
 H         -8.6851566446       -1.4038729284       -0.6339639442
 H         -7.3700418047       -2.5072439303        1.1489054240
 H         -5.3348451808       -3.3268880392        2.9334223591
 H         -3.1440381469       -3.5133646671        4.1203345780
 H         -1.2974578253       -1.9765771304        3.5119479059
 H         -1.2022308863       -0.1934732768        0.1126643313
 H          1.1737919873       -0.2678763716       -0.1989666707
  60
  -97.4206207737000       0.115940068709442      !
 C          4.1187030080       -3.9925501819       -1.1890335794
 C          3.0849759152       -3.2302336324       -1.7284222339
 C          2.9041707832       -1.9065961676       -1.3754879796
 C          3.7833319726       -1.3551712574       -0.4543441118
 C          4.8499373216       -2.1143749416        0.0796011160
 C          5.0111130835       -3.4430239274       -0.2906567893
 C          5.5815053982       -1.2355997950        0.9484489248
 C          6.6999361103       -1.4027753264        1.7543331146
 C          7.1437233514       -0.3296684623        2.5006699261
 C          6.4775711649        0.8933355777        2.4630934612
 C          5.3630913392        1.0841085481        1.6690718893
 C          4.9277086766        0.0168644349        0.8965063502
 N          3.8433166571       -0.0694139498        0.0458623444
 C          2.9602742855        0.9714748774       -0.2673647094
 C          3.4657371656        2.2150811731       -0.6647547133
 C          2.6151747603        3.2537629815       -0.9797738871
 C          1.2474963505        3.0396567623       -0.9123194611
 S          0.0033899924        4.2102769193       -1.2864230918
 C         -1.2427632067        3.0350633516       -0.9304162809
 C         -2.6103693588        3.2471739850       -1.0038783185
 C         -3.4616698007        2.2048077865       -0.7051774184
 C         -2.9556944022        0.9580567256       -0.3212991957
 N         -3.8450385453       -0.0832757186       -0.0233904227
 C         -3.6985502498       -1.4195843246       -0.3571915736
 C         -2.7414691894       -2.0381310518       -1.1490254371
 C         -2.8452979216       -3.4022546254       -1.3463128723
 C         -3.8803746221       -4.1443497425       -0.7830132986
 C         -4.8557465420       -3.5328125328       -0.0217344432
 C         -4.7715327977       -2.1629251788        0.1895563616
 C         -5.6068399206       -1.2228640071        0.8784008374
 C         -6.7811561457       -1.2884025851        1.6114848092
 C         -7.2767286966       -0.1003489740        2.1250915304
 C         -6.5919837266        1.0891095473        1.8944229939
 N         -5.4700061278        1.1839114231        1.1991773382
 C         -5.0014523622        0.0491938245        0.7075107458
 C         -1.5876773087        0.7567528224       -0.2170573008
 C         -0.7182141622        1.7931871884       -0.5353614828
 C          0.7214802514        1.7955058800       -0.5235137927
 C          1.5909334127        0.7638691713       -0.1915538285
 H          4.2248997973       -5.0244885341       -1.4884469312
 H          2.4118024922       -3.6827847424       -2.4416924868
 H          2.1119256754       -1.3193956327       -1.8152321309
 H          5.8222402049       -4.0285149190        0.1149564361
 H          7.2058093397       -2.3555118081        1.7960082179
 H          8.0130606396       -0.4374319250        3.1317296039
 H          6.8377714339        1.7099407658        3.0710872149
 H          4.8430929500        2.0301774559        1.6619599105
 H          4.5338962104        2.3493601766       -0.7378134948
 H          3.0028339530        4.2127303563       -1.2856841872
 H         -2.9978093699        4.2098900256       -1.2973999165
 H         -4.5288016929        2.3432556632       -0.7510635103
 H         -1.9497393894       -1.4746433878       -1.6176268555
 H         -2.1087390865       -3.9027971446       -1.9569598079
 H         -3.9240937854       -5.2085568403       -0.9584865225
 H         -5.6729159572       -4.1004360099        0.3968200318
 H         -7.2885058660       -2.2277677124        1.7758366450
 H         -8.1878183407       -0.0888859628        2.7022263647
 H         -6.9634577947        2.0255448717        2.2880003581
 H         -1.1979535746       -0.1879054684        0.1275185147
 H          1.2061666740       -0.1898551554        0.1342358364
  60
  -97.4205876725000       0.111949277524124      !
 C          4.0334223490       -3.6080925806       -2.3368207902
 C          2.9689572891       -2.7571406818       -2.6260327624
 C          2.8112867960       -1.5500045911       -1.9722703752
 C          3.7464159343       -1.2095727491       -1.0052963492
 C          4.8429309075       -2.0561363467       -0.7220468009
 C          4.9799774172       -3.2644476862       -1.3925800103
 C          5.6276682841       -1.3872495813        0.2773507208
 C          6.7933072243       -1.7181193630        0.9558193346
 C          7.2843816732       -0.8353814203        1.8967114785
 C          6.6194742271        0.3567251751        2.1757794960
 C          5.4583664447        0.7077542205        1.5141628709
 C          4.9739460027       -0.1632963292        0.5486113672
 N          3.8391402895       -0.0690549416       -0.2324022067
 C          2.9454291231        1.0090890246       -0.2534854755
 C          3.4379496219        2.3125400757       -0.3905105624
 C          2.5805283987        3.3923728516       -0.4070976385
 C          1.2179290985        3.1619300715       -0.3036150794
 S         -0.0336571148        4.3838017820       -0.3062577717
 C         -1.2663149413        3.1531408525       -0.1456080185
 C         -2.6310346133        3.3743383123       -0.0571015743
 C         -3.4724851373        2.2883226396        0.0654054016
 C         -2.9604912159        0.9857918534        0.0785875809
 N         -3.8307823697       -0.1062492224        0.1980311754
 C         -5.0688319833       -0.2541150735       -0.4052039880
 C         -5.6845469690        0.5282053925       -1.3719004409
 C         -6.9272990679        0.1334968682       -1.8307348851
 C         -7.5494741687       -1.0177352562       -1.3538662827
 C         -6.9291429140       -1.8212035685       -0.4185979827
 C         -5.6788918359       -1.4453119302        0.0547360396
 C         -4.7540346836       -2.0472788469        0.9703258350
 C         -4.7324161234       -3.1917051620        1.7516513831
 C         -3.5998941669       -3.4163328001        2.5185853542
 C         -2.5486460807       -2.5053167352        2.4789653952
 N         -2.5397462809       -1.4041835115        1.7444165784
 C         -3.6218520754       -1.1927344885        1.0137362947
 C         -1.5931613162        0.7675483053        0.0086994384
 C         -0.7336838400        1.8535638315       -0.0964261643
 C          0.7038402241        1.8596480347       -0.1815721258
 C          1.5810785884        0.7828706293       -0.1457946553
 H          4.1199238586       -4.5441018363       -2.8681167728
 H          2.2523427764       -3.0455740786       -3.3809149987
 H          1.9929795587       -0.8900776819       -2.2179490637
 H          5.8139114963       -3.9160490571       -1.1793780247
 H          7.2992049977       -2.6493720752        0.7506814798
 H          8.1910219343       -1.0717429432        2.4332607978
 H          7.0182283635        1.0198924901        2.9290708957
 H          4.9403568621        1.6243424618        1.7523977802
 H          4.5010138940        2.4644966162       -0.4965924602
 H          2.9583513335        4.3976065775       -0.5087476974
 H         -3.0240501201        4.3788362577       -0.0714082242
 H         -4.5342302722        2.4433633746        0.1753617830
 H         -5.2046874529        1.4077774605       -1.7722211236
 H         -7.4246979615        0.7301374461       -2.5807914160
 H         -8.5224931780       -1.2890410492       -1.7346389341
 H         -7.3970282935       -2.7274479741       -0.0649305528
 H         -5.5650348410       -3.8797645509        1.7623246756
 H         -3.5253506298       -4.2905918778        3.1456837643
 H         -1.6563842735       -2.6655805904        3.0690882211
 H         -1.2067379848       -0.2365936365        0.0523478694
 H          1.2043486185       -0.2196276902       -0.0188950696
  60
  -97.4204957181000       0.101569187623678      !
 C          4.0158115155       -3.4699690326       -2.5046538786
 C          2.9614042490       -2.5933952253       -2.7519179948
 C          2.8032249679       -1.4315439346       -2.0212948085
 C          3.7286019183       -1.1639627493       -1.0227599276
 C          4.8112753931       -2.0385283280       -0.7750317802
 C          4.9485257755       -3.2006240485       -1.5231745357
 C          5.5843651892       -1.4411760572        0.2776853897
 C          6.7308566110       -1.8269912737        0.9595301982
 C          7.2125610959       -1.0069978553        1.9602313546
 C          6.5609010544        0.1791686581        2.2917466234
 C          5.4193314464        0.5852872614        1.6275986436
 C          4.9408193347       -0.2263086728        0.6092348202
 N          3.8201886996       -0.0742480794       -0.1799797952
 C          2.9412259927        1.0175237859       -0.1852017207
 C          3.4401035777        2.3161253398       -0.3380671343
 C          2.5837796079        3.3952802864       -0.4095715143
 C          1.2182651645        3.1683980374       -0.3358490457
 S         -0.0375176238        4.3796114330       -0.4673277947
 C         -1.2730984210        3.1540333418       -0.2866519543
 C         -2.6424995796        3.3660296162       -0.3034613050
 C         -3.4831523764        2.2844388358       -0.1383293456
 C         -2.9622625024        0.9990695436        0.0431669984
 N         -3.8271348436       -0.0888958100        0.2333323011
 C         -4.9444555102       -0.4035832723       -0.5181557626
 C         -5.4319733712        0.1985593853       -1.6686358362
 C         -6.5583041857       -0.3471422358       -2.2550534814
 C         -7.1884313559       -1.4682251171       -1.7193960254
 C         -6.6981247094       -2.0843602538       -0.5855402306
 C         -5.5655442333       -1.5557565337        0.0199046311
 C         -4.7790186334       -1.9477797608        1.1534718811
 C         -4.8374571159       -2.9507972722        2.1081710840
 C         -3.8399803736       -2.9708872842        3.0707385541
 C         -2.8361116451       -2.0071322475        3.0457552674
 N         -2.7511130963       -1.0381628369        2.1478622983
 C         -3.7062773678       -1.0213866452        1.2334075863
 C         -1.5933782610        0.7882706212        0.0621701858
 C         -0.7364033680        1.8671903331       -0.1103592166
 C          0.7019749697        1.8737348477       -0.1567982455
 C          1.5765590930        0.7977849291       -0.0761979707
 H          4.1046536673       -4.3676831826       -3.0980516189
 H          2.2540452548       -2.8249032757       -3.5345932694
 H          1.9929161408       -0.7494522532       -2.2311444671
 H          5.7727686871       -3.8735951298       -1.3413100457
 H          7.2280242189       -2.7527955215        0.7122774419
 H          8.1026901595       -1.2888094615        2.5025769617
 H          6.9557670797        0.7933116762        3.0875236560
 H          4.9116305353        1.4987231278        1.8993320526
 H          4.5059571068        2.4631678128       -0.4228900716
 H          2.9648575482        4.3959820595       -0.5398310035
 H         -3.0400618357        4.3603420271       -0.4335205027
 H         -4.5524118905        2.4295690279       -0.1248059536
 H         -4.9391825550        1.0547179768       -2.1034520147
 H         -6.9555723169        0.1030309961       -3.1525529435
 H         -8.0667417671       -1.8633394726       -2.2071580443
 H         -7.1757853192       -2.9626936992       -0.1785756809
 H         -5.6295312976       -3.6853416012        2.1035742418
 H         -3.8346293862       -3.7270761618        3.8399500235
 H         -2.0499183114       -2.0094157467        3.7886581033
 H         -1.2045573216       -0.2038077809        0.2210455208
 H          1.1985146029       -0.2021538145        0.0676411923
  60
  -97.4203570737000       8.770925542313621E-002 !
 C          6.6558864541       -1.8963706585       -2.8458844947
 C          5.9767322925       -0.7895011613       -3.3500792250
 C          5.0173375959       -0.1307627640       -2.6053737480
 C          4.7530419668       -0.6008707313       -1.3269187193
 C          5.4194815555       -1.7382439477       -0.8163780892
 C          6.3800799233       -2.3835875743       -1.5840427263
 C          4.8698357674       -1.9815863462        0.4878639718
 C          5.1215216492       -2.9334473049        1.4670572241
 C          4.4028431051       -2.8767672428        2.6442953092
 C          3.4539601654       -1.8789940981        2.8569517351
 C          3.1863122025       -0.9203574410        1.8983837660
 C          3.8896824619       -0.9855659199        0.7039798006
 N          3.8360274836       -0.1527184057       -0.3959157411
 C          2.9474883088        0.9122244965       -0.5903147707
 C          3.4345428265        2.1470718754       -1.0361224496
 C          2.5734193361        3.1893759783       -1.3081520062
 C          1.2140343285        2.9960995716       -1.1190944287
 S         -0.0500601613        4.1553381788       -1.4632504811
 C         -1.2716745013        3.0096673466       -0.9572467866
 C         -2.6412250339        3.2203765171       -0.9662783410
 C         -3.4699350347        2.2138019333       -0.5150139323
 C         -2.9358262149        1.0065225501       -0.0534472640
 N         -3.7852302416        0.0101578624        0.4507326460
 C         -4.9524964552       -0.4621823401       -0.1195224560
 C         -5.5028634566       -0.1829376606       -1.3616674266
 C         -6.6715095985       -0.8333011197       -1.7105263033
 C         -7.2827632753       -1.7443545541       -0.8519104585
 C         -6.7313623873       -2.0408730026        0.3784244780
 C         -5.5554063333       -1.4022767860        0.7499015337
 C         -4.7057609574       -1.4911292269        1.9021425918
 C         -4.7228125639       -2.1831232118        3.1028773082
 C         -3.6685951555       -1.9661658987        3.9765544260
 C         -2.6506077072       -1.0842354834        3.6259513014
 N         -2.6058511546       -0.4069682970        2.4895848857
 C         -3.6164108284       -0.6132938568        1.6620054680
 C         -1.5671165886        0.7938362978       -0.0512535392
 C         -0.7225965621        1.7942661944       -0.5139259388
 C          0.7121641704        1.7788860536       -0.6280819351
 C          1.5898292189        0.7332976493       -0.3712914332
 H          7.3999689238       -2.3826437369       -3.4587908872
 H          6.2005265005       -0.4412234244       -4.3475657482
 H          4.4820155175        0.7126204050       -3.0146735730
 H          6.8946390975       -3.2510676068       -1.1992369303
 H          5.8661889266       -3.6984125275        1.3067208055
 H          4.5803257240       -3.6097242361        3.4171012342
 H          2.9166623158       -1.8527077364        3.7933705608
 H          2.4601220335       -0.1425520037        2.0800839668
 H          4.4982666540        2.2770626244       -1.1626877406
 H          2.9466397676        4.1372588060       -1.6628152823
 H         -3.0475990247        4.1587494540       -1.3096666714
 H         -4.5383716371        2.3639964365       -0.4919626540
 H         -5.0265601986        0.5069341291       -2.0415979429
 H         -7.1182954051       -0.6341587232       -2.6731881462
 H         -8.1952994249       -2.2309022475       -1.1618172236
 H         -7.1947733713       -2.7592516356        1.0375541718
 H         -5.5271197087       -2.8607899836        3.3493297003
 H         -3.6301842137       -2.4743152949        4.9272036653
 H         -1.8197622748       -0.9059204783        4.2951576200
 H         -1.1685576841       -0.1354974340        0.3203297725
 H          1.2145843514       -0.2195332296       -0.0330132011
  60
  -97.4203437790000       8.648396715036277E-002 !
 C          4.2517236969       -3.5281255956       -2.4720276641
 C          3.1252408173       -2.7417729416       -2.7029769707
 C          2.8909267195       -1.5858779888       -1.9826190260
 C          3.8140209804       -1.2301883896       -1.0099705463
 C          4.9693143480       -2.0131351386       -0.7807305263
 C          5.1826722849       -3.1705789512       -1.5174726490
 C          5.7211103638       -1.3434914230        0.2433147617
 C          6.9194532829       -1.6219535087        0.8876793576
 C          7.3640338359       -0.7514452379        1.8625059768
 C          6.6211988022        0.3748074999        2.2104802189
 C          5.4269755633        0.6732071900        1.5831814565
 C          4.9898130406       -0.1823753314        0.5818809329
 N          3.8383514372       -0.1276440340       -0.1786261564
 C          2.9345054426        0.9432262195       -0.2002734077
 C          3.4323833116        2.2457656310       -0.3306839957
 C          2.5798698514        3.3279055065       -0.3560570277
 C          1.2159711398        3.1003015971       -0.2654046191
 S         -0.0256045692        4.3303176439       -0.2913964060
 C         -1.2669043273        3.1086501004       -0.1429556971
 C         -2.6305352892        3.3457236088       -0.0845545322
 C         -3.4847529663        2.2699204723        0.0318447377
 C         -2.9840373791        0.9640076114        0.0765037961
 N         -3.8733986775       -0.1133015624        0.1954292960
 C         -5.0816093533       -0.2652012645       -0.4631704140
 C         -5.6307320243        0.4887520599       -1.4904114473
 C         -6.8549263720        0.0964433818       -1.9983820343
 C         -7.5223878694       -1.0240207891       -1.5089575210
 C         -6.9690929252       -1.7971811041       -0.5082359181
 C         -5.7383953119       -1.4234986967        0.0158261077
 C         -4.8761241256       -1.9965814053        1.0082061189
 C         -4.9212732760       -3.0976280292        1.8486213178
 C         -3.8384242402       -3.2992306302        2.6902481682
 C         -2.7677521057       -2.4104356634        2.6625441759
 N         -2.6946667824       -1.3507747589        1.8724203326
 C         -3.7305466089       -1.1607828451        1.0725735446
 C         -1.6183702474        0.7294836895        0.0355517931
 C         -0.7448880583        1.8050636309       -0.0731145899
 C          0.6945192979        1.8005246010       -0.1439704720
 C          1.5690291210        0.7197340637       -0.1038067767
 H          4.3987257009       -4.4242821043       -3.0561745063
 H          2.4206614831       -3.0402005916       -3.4652526130
 H          2.0240657058       -0.9744533505       -2.1830620209
 H          6.0628976391       -3.7718822829       -1.3470091952
 H          7.4867879153       -2.5035785147        0.6302462036
 H          8.2953642509       -0.9468204729        2.3726915727
 H          6.9853222155        1.0277481245        2.9898450349
 H          4.8498383600        1.5392253997        1.8706539106
 H          4.4971818719        2.3927152830       -0.4259004074
 H          2.9610621823        4.3319406955       -0.4560756120
 H         -3.0115060971        4.3543129483       -0.1184282717
 H         -4.5480319160        2.4336384664        0.1124646067
 H         -5.1138202928        1.3450065081       -1.8956946624
 H         -7.3014105888        0.6698837575       -2.7970025977
 H         -8.4785875332       -1.2950643758       -1.9304875907
 H         -7.4737885226       -2.6785611264       -0.1424543206
 H         -5.7675544999       -3.7690545032        1.8494595825
 H         -3.8177950475       -4.1387558582        3.3671156182
 H         -1.9141129734       -2.5540989898        3.3110832624
 H         -1.2450574400       -0.2787283572        0.1017152538
 H          1.1884436339       -0.2824650510        0.0155246387
  60
  -97.4202989226000       8.247475403378322E-002 !
 C          4.2669187594       -4.0430121473       -0.2912654385
 C          3.2598657600       -3.4013445265       -1.0088127289
 C          3.0258749412       -2.0464318674       -0.8706905592
 C          3.8234573702       -1.3382170383        0.0167932969
 C          4.8618520587       -1.9769656212        0.7330700231
 C          5.0781497040       -3.3397382178        0.5765054805
 C          5.5078132561       -0.9576880079        1.5116397745
 C          6.5643767059       -0.9693905540        2.4127110269
 C          6.9281467134        0.2153387059        3.0208997855
 C          6.2433221087        1.3984771562        2.7520533522
 C          5.1896426359        1.4354895248        1.8590057446
 C          4.8356495267        0.2527392252        1.2256063751
 N          3.8204283831        0.0086656013        0.3221389788
 C          2.9540886222        0.9679473937       -0.2173610405
 C          3.4781335050        2.1426092943       -0.7699709899
 C          2.6459466055        3.1001118056       -1.3105214563
 C          1.2788542114        2.8722447756       -1.3104686753
 S          0.0569673054        3.9449452860       -1.9544602443
 C         -1.2043016290        2.8220649918       -1.4970930131
 C         -2.5633804893        2.9880104585       -1.7124479763
 C         -3.4300576437        2.0081270362       -1.2769406973
 C         -2.9460252666        0.8620695284       -0.6371895502
 N         -3.8477395334       -0.1183865959       -0.2014974823
 C         -3.7858413388       -0.8270175775        0.9865509065
 C         -2.9390820078       -0.6633052466        2.0735972539
 C         -3.1130322716       -1.4973858010        3.1619923154
 C         -4.1099043137       -2.4698518668        3.1837273525
 C         -4.9773523446       -2.6182530272        2.1203532795
 C         -4.8224613841       -1.7898399342        1.0165257093
 C         -5.5461134913       -1.6444866704       -0.2128537190
 C         -6.6375246726       -2.2626121802       -0.8024021629
 C         -7.0323241092       -1.8016208820       -2.0484199496
 C         -6.3337452467       -0.7596760263       -2.6513469415
 N         -5.2881109619       -0.1506465299       -2.1153860965
 C         -4.9157740641       -0.5911468319       -0.9253255169
 C         -1.5838822113        0.6828033693       -0.4500406880
 C         -0.7008567854        1.6700684748       -0.8700129115
 C          0.7348159398        1.6962602377       -0.7656028459
 C          1.5846709171        0.7478067499       -0.2097341230
 H          4.4169566786       -5.1037170956       -0.4262869542
 H          2.6507566257       -3.9745715800       -1.6920844582
 H          2.2555397104       -1.5561954280       -1.4468245949
 H          5.8685757800       -3.8334832885        1.1212659599
 H          7.0841258418       -1.8894836926        2.6332666966
 H          7.7487630072        0.2287143589        3.7224394171
 H          6.5398645124        2.3065604816        3.2558095878
 H          4.6533312358        2.3535997807        1.6715699065
 H          4.5476624543        2.2851243787       -0.7836950737
 H          3.0483545476        4.0054560201       -1.7369745693
 H         -2.9329394970        3.8722367708       -2.2071156936
 H         -4.4906308760        2.1082845046       -1.4364641087
 H         -2.1797909276        0.1034278247        2.0840450279
 H         -2.4637044383       -1.3877385854        4.0178417645
 H         -4.2103091907       -3.1038859038        4.0516155806
 H         -5.7656442645       -3.3552771244        2.1437165841
 H         -7.1577918543       -3.0713448023       -0.3102887340
 H         -7.8758745968       -2.2427757241       -2.5554703951
 H         -6.6280167839       -0.3875194353       -3.6233013661
 H         -1.2082509259       -0.2228842540       -0.0007435918
 H          1.1841628009       -0.1502491536        0.2341049206
  60
  -97.4201043335000       6.712651033953951E-002 !
 C          6.8670263715       -2.4540861291       -1.7690551427
 C          6.1767581390       -1.6028193611       -2.6292557225
 C          5.1507300708       -0.7959400880       -2.1761774755
 C          4.8298191113       -0.8523151514       -0.8274142030
 C          5.5083710228       -1.7306507927        0.0482389496
 C          6.5368630866       -2.5314506254       -0.4308785619
 C          4.8967100592       -1.5736691168        1.3380823624
 C          5.1322903797       -2.1427030200        2.5826727556
 C          4.3526048971       -1.7448366605        3.6501618905
 C          3.3575168535       -0.7827659979        3.4913332146
 C          3.1041352911       -0.2022006163        2.2632464432
 C          3.8705036825       -0.6134087864        1.1821598739
 N          3.8441383215       -0.1831716587       -0.1292113600
 C          2.9616961915        0.7611773538       -0.6696408841
 C          3.4675658550        1.8312066528       -1.4171222981
 C          2.6189075629        2.7583164404       -1.9841628673
 C          1.2536116381        2.6168886044       -1.7923684218
 S          0.0114340356        3.6607314525       -2.4442966395
 C         -1.2340281755        2.6780214079       -1.7072432435
 C         -2.6005588852        2.8911063578       -1.7948500163
 C         -3.4527514196        2.0079469543       -1.1672749461
 C         -2.9484043399        0.9263569233       -0.4363317917
 N         -3.8391090601        0.0491993205        0.1968304826
 C         -3.7090948178       -1.3255274898        0.3126785150
 C         -2.7790087678       -2.1827506355       -0.2585024838
 C         -2.8941751110       -3.5348837923        0.0048838220
 C         -3.9146107408       -4.0378879143        0.8081255872
 C         -4.8670841541       -3.1979676594        1.3487412782
 C         -4.7716435140       -1.8358349161        1.0959588746
 C         -5.5870979189       -0.7125638117        1.4549271209
 C         -6.7488500906       -0.5229041385        2.1863965322
 C         -7.2308587378        0.7724283561        2.2891022809
 C         -6.5441388193        1.8138076588        1.6721019336
 N         -5.4336501462        1.6644254633        0.9680169730
 C         -4.9789057560        0.4266672077        0.8668048496
 C         -1.5796664265        0.7334226474       -0.3226906194
 C         -0.7103364179        1.5987664670       -0.9762818958
 C          0.7281638488        1.5602027885       -1.0284023488
 C          1.5954275268        0.6280893792       -0.4715307566
 H          7.6648125661       -3.0666833181       -2.1615860530
 H          6.4479824927       -1.5741750349       -3.6742299256
 H          4.6105324626       -0.1523416077       -2.8541516989
 H          7.0600533755       -3.2036923122        0.2322215101
 H          5.9137084350       -2.8767850480        2.7086029234
 H          4.5187368839       -2.1754817701        4.6262743111
 H          2.7728544495       -0.4813473404        4.3479343389
 H          2.3428625738        0.5557307771        2.1545108359
 H          4.5353928105        1.9287692515       -1.5382314994
 H          3.0060258850        3.5806083816       -2.5650582078
 H         -2.9869521576        3.7292529628       -2.3527794630
 H         -4.5189392613        2.1498028614       -1.2208743416
 H         -1.9993949895       -1.8159596426       -0.9078950081
 H         -2.1767048297       -4.2171177919       -0.4262194171
 H         -3.9675097397       -5.1002379575        0.9925251579
 H         -5.6752983407       -3.5862090432        1.9497224822
 H         -7.2575014373       -1.3518672689        2.6564584700
 H         -8.1326362638        0.9810892655        2.8427443798
 H         -6.9051191072        2.8309715026        1.7412770566
 H         -1.1874469653       -0.0678908773        0.2829440766
 H          1.2103634781       -0.2069877293        0.0927683868
  60
  -97.4198072789000       4.902044262846150E-002 !
 C          7.1652128957       -1.5260186066       -2.4893224499
 C          6.4736472346       -0.4544330058       -3.0494339810
 C          5.3326435199        0.0566097664       -2.4608293013
 C          4.8963011837       -0.5218803641       -1.2767840993
 C          5.5706031702       -1.6346446517       -0.7241113951
 C          6.7149196348       -2.1317371743       -1.3336473420
 C          4.8305114777       -2.0220452336        0.4434933275
 C          5.0009511726       -3.0284782632        1.3847106373
 C          4.0958758393       -3.1234440551        2.4223431781
 C          3.0462110741       -2.2152884222        2.5382284753
 C          2.8581278382       -1.2038412547        1.6156238662
 C          3.7441022539       -1.1233635607        0.5499918236
 N          3.7960334185       -0.2196992857       -0.4960729977
 C          2.9120593406        0.8444244537       -0.7059110792
 C          3.4166378619        2.1125496618       -1.0224328658
 C          2.5684449930        3.1758249011       -1.2487873971
 C          1.2033367000        2.9788651608       -1.1160694704
 S         -0.0375423614        4.1957819095       -1.3169023255
 C         -1.2734273858        3.0390634814       -0.8751588925
 C         -2.6258505017        3.3049599789       -0.7361587667
 C         -3.4621967973        2.2918232846       -0.3153734579
 C         -2.9600640734        1.0105491793       -0.0607345423
 N         -3.8109053446        0.0026277704        0.4133767023
 C         -5.1252513438       -0.2310787131        0.0445481670
 C         -5.8697254661        0.3204232638       -0.9886367062
 C         -7.1719618655       -0.1132034039       -1.1530111363
 C         -7.7291223730       -1.0823553386       -0.3222207221
 C         -6.9847956949       -1.6633357087        0.6845385093
 C         -5.6738313902       -1.2435781341        0.8674132800
 C         -4.6321218025       -1.6437404493        1.7678582679
 C         -4.5103230738       -2.5574013855        2.8028401959
 C         -3.2828388808       -2.6343362407        3.4419668628
 C         -2.2401188356       -1.8089572772        3.0324013621
 N         -2.3255103955       -0.9272180733        2.0490569052
 C         -3.4978745616       -0.8566611760        1.4403953689
 C         -1.6083886457        0.7429004583       -0.2149229531
 C         -0.7517602174        1.7609950417       -0.6124766369
 C          0.6796689527        1.7238349446       -0.7633170331
 C          1.5432018708        0.6499253249       -0.5867764995
 H          8.0572451392       -1.8912573121       -2.9757871806
 H          6.8350556538       -0.0141452830       -3.9670022604
 H          4.7944633794        0.8712629837       -2.9209582852
 H          7.2359852574       -2.9768436448       -0.9099088804
 H          5.8269909327       -3.7185296820        1.3021821853
 H          4.2054723474       -3.9025207137        3.1618488972
 H          2.3642660581       -2.3000880362        3.3713398612
 H          2.0536352021       -0.4951914814        1.7368576631
 H          4.4843741532        2.2577482431       -1.0703065751
 H          2.9580493289        4.1491566457       -1.5025793136
 H         -3.0106553832        4.2944346430       -0.9272017535
 H         -4.5074781955        2.4976161682       -0.1471409362
 H         -5.4453924954        1.0515774075       -1.6590535852
 H         -7.7694119681        0.3065980566       -1.9485561733
 H         -8.7515164615       -1.3903302205       -0.4808597248
 H         -7.4047524165       -2.4324530334        1.3149088610
 H         -5.3394057519       -3.1830919312        3.0994297126
 H         -3.1279057820       -3.3282933568        4.2530082642
 H         -1.2741838908       -1.8573415935        3.5170044607
 H         -1.2269289719       -0.2393214953        0.0062722431
 H          1.1480697550       -0.3283956035       -0.3658269595
