  86
       -130.83420142
 C         12.3774460200       -2.4486466492       -0.9251499714
 C         12.2313775040       -1.0115533070       -0.4056580629
 C         12.8344938208       -0.0270838997       -1.4179445469
 C         13.0204237584       -0.8944365055        0.9013789770
 C         10.7545884676       -0.6925204209       -0.2300031722
 C          9.9043945296       -0.7595756639       -1.3313787599
 C          8.5600232979       -0.4639807580       -1.2277669733
 C          8.0298186046       -0.0996404824       -0.0007188306
 N          6.6397801220        0.2151332095        0.1156192569
 C          6.3169457866        1.5056532790        0.5044779696
 O          7.1877347036        2.3310726711        0.7199906315
 C          4.8881756846        1.8100806637        0.6208367905
 C          4.5103561817        3.0894078275        1.0194845131
 C          3.1710376180        3.3989525998        1.1338012037
 C          2.1995885410        2.4482521227        0.8498351771
 C          2.5288528489        1.1548800888        0.4415606947
 C          1.5447327491        0.1323134153        0.1305465206
 C          0.1747819524        0.3973020183        0.1965688813
 C         -0.8661020972       -0.4907760991       -0.0673824338
 C         -2.2394727607       -0.1977902514       -0.0015009482
 C         -2.7655533603        1.0821622174        0.3549496532
 C         -4.0991859053        1.3153475668        0.4018768986
 C         -5.0433462898        0.2961758895        0.0933095476
 C         -6.4142945593        0.5216635915        0.1340188813
 C         -7.3196472337       -0.4932470118       -0.1634509400
 N         -8.6868056613       -0.2566639628       -0.1273967739
 C         -9.1944081645        1.0048337314       -0.4651371395
 C        -10.2678869525        1.5445449979        0.2435102693
 C        -10.7679480383        2.7864694184       -0.0960627385
 C        -10.2071951857        3.5074708934       -1.1382084181
 C         -9.1410454249        2.9744933154       -1.8452469169
 C         -8.6363123245        1.7315676074       -1.5173330709
 C         -9.5722833988       -1.2711690793        0.2573526187
 C         -9.2313711791       -2.1544705683        1.2821149220
 C        -10.1094616302       -3.1523751777        1.6569877728
 C        -11.3360359859       -3.2811810491        1.0251229062
 C        -11.6806275484       -2.4024369816        0.0104590048
 C        -10.8079501985       -1.4043507450       -0.3763078109
 C         -6.8282983233       -1.7722546276       -0.5130958097
 C         -5.4886972525       -2.0118373225       -0.5631070736
 C         -4.5446822337       -0.9946160227       -0.2605459691
 C         -3.1748088498       -1.2126539743       -0.3000829538
 C          2.0302776995       -1.1543048922       -0.2532884664
 C          3.3588337766       -1.4373943234       -0.3456357422
 C          4.3257380276       -0.4541070057       -0.0624230723
 C          3.9128061813        0.8354237491        0.3317715157
 C          5.7330817381       -0.8008463754       -0.1753942907
 O          6.1251540380       -1.9129651636       -0.4935584331
 C          8.8525885061       -0.0355039198        1.1096378889
 C         10.2003413111       -0.3248727255        0.9896394903
 H         13.4297044138       -2.6979377768       -1.0474969824
 H         11.8836250861       -2.5760552159       -1.8841601426
 H         11.9354413763       -3.1491524541       -0.2198391229
 H         13.8989969722       -0.2176218278       -1.5392447412
 H         12.3593870915       -0.1183945658       -2.3904709183
 H         12.7032754790        0.9951726280       -1.0700121717
 H         14.0656908168       -1.1349301279        0.7161787432
 H         12.6440192680       -1.5882693732        1.6493986849
 H         12.9739833052        0.1175002799        1.2967289629
 H         10.2915562399       -1.0425265806       -2.2985141631
 H          7.9194773590       -0.5194061377       -2.0948129364
 H          5.2832071108        3.8118893604        1.2312724010
 H          2.8690783144        4.3880644473        1.4451315134
 H          1.1677589120        2.7432592430        0.9573387806
 H         -0.1153586414        1.3964275815        0.4800678523
 H         -0.6267245845       -1.5055335633       -0.3510177443
 H         -2.0838676977        1.8832542616        0.5939365837
 H         -4.4756750707        2.2912654970        0.6746656367
 H         -6.7806988835        1.4974890269        0.4197892838
 H        -10.6975505432        0.9878030103        1.0632515411
 H        -11.5962115117        3.1970272899        0.4617156975
 H        -10.5990729103        4.4786014151       -1.3983934567
 H         -8.7034804946        3.5272036926       -2.6629986052
 H         -7.8144142837        1.3100911723       -2.0772312700
 H         -8.2820611057       -2.0437804613        1.7852602216
 H         -9.8378829979       -3.8277779817        2.4543082425
 H        -12.0200026294       -4.0609537074        1.3226333567
 H        -12.6324038445       -2.5001897151       -0.4898029306
 H        -11.0706569559       -0.7280175308       -1.1764234692
 H         -7.5336787981       -2.5511052987       -0.7628144849
 H         -5.1223124979       -2.9867849915       -0.8489257839
 H         -2.8099605053       -2.1946684601       -0.5668961451
 H          1.3174233150       -1.9295217204       -0.4824181101
 H          3.7101953432       -2.4152000597       -0.6382720215
 H          8.4415213990        0.2491897338        2.0663071807
 H         10.8114235936       -0.2586527438        1.8747081740
