  57
        -83.53507000
 C          5.6678093194        2.8242192191        0.4400814985
 N          5.2914171969        1.5968428204       -0.2116608196
 C          6.3202025541        0.8899346562       -0.9295396856
 C          4.0059002260        1.1227099719       -0.1549106353
 C          3.5527120191        0.1355522098       -1.0464801031
 C          2.2628423239       -0.3352154001       -0.9915134128
 C          1.3589935576        0.1583487701       -0.0416364795
 N          0.0557547183       -0.3145580963       -0.0083156019
 C         -0.3336635757       -1.6809573243        0.0175149502
 C          0.5004001560       -2.8131269277        0.1472308490
 C         -0.0555532024       -4.0761833561       -0.1854199138
 C          0.6913355847       -5.2208748092       -0.0954070958
 C          2.0141907682       -5.1708661858        0.3466721432
 C          2.5598323515       -3.9487805349        0.7259362252
 C          1.8285941554       -2.7883021842        0.6393058780
 N         -1.6611345439       -1.7781023369       -0.0171886940
 C         -2.1726852771       -0.5540623094        0.0193708340
 C         -3.5917989594       -0.3610505716       -0.1350980933
 C         -4.1407489929        0.7759606108       -0.7442562623
 C         -5.5078578475        0.8960255753       -0.8863948609
 C         -6.3545017175       -0.1056519667       -0.4354278975
 C         -5.8196798409       -1.2502007407        0.1425746628
 C         -4.4560451855       -1.3825868254        0.2841269558
 C         -1.1116482913        0.4284173467        0.0840338693
 C         -1.2156433170        1.8391663773        0.1597559794
 C         -0.3093276451        2.7130515352       -0.4893031407
 C         -0.4641670728        4.0746232058       -0.4039236063
 C         -1.5057425334        4.6313567208        0.3341795016
 C         -2.4061114795        3.7901099717        0.9823175064
 C         -2.2729122799        2.4261890440        0.9007345242
 C          1.8021174742        1.1388399192        0.8537096679
 C          3.0933575537        1.6065326262        0.7988332811
 H          6.5303934033        3.2506640632       -0.0705743158
 H          5.9317864131        2.6669354014        1.4928130571
 H          4.8539675999        3.5477232712        0.3878500623
 H          6.1813084454       -0.1869179922       -0.8308283115
 H          7.2912337136        1.1443709120       -0.5064917656
 H          6.3288881660        1.1473366173       -1.9955957977
 H          4.2081504193       -0.2473573437       -1.8116314259
 H          1.9308617090       -1.0827365028       -1.6963831751
 H         -1.0761717486       -4.0974158104       -0.5328923472
 H          0.2559847972       -6.1709337156       -0.3701984130
 H          2.6011509941       -6.0740778368        0.4140894409
 H          3.5700509314       -3.9114347093        1.1093277388
 H          2.2529246580       -1.8656194915        1.0009182803
 H         -3.4900364922        1.5435779424       -1.1333285239
 H         -5.9192038336        1.7757569689       -1.3601246338
 H         -7.4239215068       -0.0013161668       -0.5441443763
 H         -6.4760248807       -2.0378908856        0.4833348548
 H         -4.0240710510       -2.2639466374        0.7323213228
 H          0.4804408918        2.3015708721       -1.0990901192
 H          0.2281142120        4.7224469157       -0.9235343857
 H         -1.6131142918        5.7029910844        0.4030081496
 H         -3.2122184129        4.2141286153        1.5640491416
 H         -2.9557077903        1.7816958573        1.4338055721
 H          1.1259464404        1.5142955978        1.6065122988
 H          3.4060325634        2.3382011798        1.5259883444
  57
        -83.53495263
 C          5.7300174096        2.6521491657        0.6532617435
 N          5.2971982791        1.5917687518       -0.2199946668
 C          6.2619338242        0.9708529640       -1.0907437589
 C          4.0095388666        1.1220391388       -0.1634849443
 C          3.5493658894        0.1451062288       -1.0630474727
 C          2.2566435058       -0.3193737340       -1.0117175399
 C          1.3558493411        0.1672120164       -0.0566988464
 N          0.0525328854       -0.3079074649       -0.0225853295
 C         -0.3327100292       -1.6749310931        0.0143881895
 C          0.5050394269       -2.8031990086        0.1518881632
 C         -0.0485835160       -4.0714329257       -0.1652178382
 C          0.7017650016       -5.2131056545       -0.0649517355
 C          2.0260610298       -5.1548766202        0.3714604313
 C          2.5700788354       -3.9270863362        0.7347296090
 C          1.8352255859       -2.7698692254        0.6383989132
 N         -1.6605345239       -1.7759974311       -0.0159616697
 C         -2.1750280148       -0.5536122583        0.0161084285
 C         -3.5949401353       -0.3635635503       -0.1359332722
 C         -4.1458047499        0.7694078294       -0.7510916019
 C         -5.5131670286        0.8863801724       -0.8935171967
 C         -6.3581706700       -0.1137945477       -0.4361504400
 C         -5.8213520290       -1.2534995968        0.1496690005
 C         -4.4574289314       -1.3832230361        0.2911512111
 C         -1.1162565949        0.4325243092        0.0729239819
 C         -1.2219535824        1.8424318040        0.1491574451
 C         -0.3150288440        2.7174169059       -0.4981007291
 C         -0.4679282774        4.0788260201       -0.4080296842
 C         -1.5078758080        4.6343636286        0.3333349392
 C         -2.4101062645        3.7922786911        0.9781850888
 C         -2.2792289861        2.4286193112        0.8914416003
 C          1.8033855634        1.1393358145        0.8440509966
 C          3.0966499242        1.6027402363        0.7921642620
 H          5.0577091013        3.5103836525        0.5808671961
 H          6.7245715885        2.9795923181        0.3617314031
 H          5.7682896970        2.3268458044        1.6988394043
 H          7.2506865513        1.3752533332       -0.8868507177
 H          6.0274199740        1.1581427864       -2.1444633635
 H          6.2976325058       -0.1107070706       -0.9300628405
 H          4.2020377813       -0.2479759266       -1.8243995662
 H          1.9230610651       -1.0632833042       -1.7195944036
 H         -1.0702513801       -4.0995084436       -0.5090153241
 H          0.2683543890       -6.1675181646       -0.3271843654
 H          2.6154154468       -6.0559788031        0.4471512798
 H          3.5815511486       -3.8825229869        1.1138578405
 H          2.2584470667       -1.8419947133        0.9877870076
 H         -3.4962480913        1.5358333592       -1.1445071111
 H         -5.9260032097        1.7625854681       -1.3724783006
 H         -7.4277973785       -0.0124336406       -0.5455568574
 H         -6.4766778640       -2.0396357179        0.4960354714
 H         -4.0240034763       -2.2611379027        0.7446997067
 H          0.4739445278        2.3070283310       -1.1095401905
 H          0.2250671857        4.7271354585       -0.9258907746
 H         -1.6127449577        5.7059342848        0.4074928360
 H         -3.2151429276        4.2155277596        1.5618661217
 H         -2.9628150213        1.7832983842        1.4225793357
 H          1.1283127772        1.5160230648        1.5974214468
 H          3.4022143555        2.3381664510        1.5172803941
  57
        -83.53487355
 C          6.1191029762        1.3645439002       -1.3699161319
 N          5.2922755200        1.5946175113       -0.2132160888
 C          5.8574759972        2.3627863461        0.8656988006
 C          4.0067618512        1.1205961389       -0.1544043888
 C          3.5523208451        0.1361080689       -1.0485355403
 C          2.2613725770       -0.3321309079       -0.9963300762
 C          1.3592663423        0.1559500914       -0.0421310753
 N          0.0552446384       -0.3159956471       -0.0111815580
 C         -0.3352486348       -1.6819512194        0.0053192057
 C          0.4995250665       -2.8149393674        0.1289178650
 C         -0.0514229076       -4.0751723263       -0.2206319940
 C          0.6979768691       -5.2190916402       -0.1379719229
 C          2.0173071061       -5.1706182173        0.3139902263
 C          2.5573108582       -3.9514316475        0.7104067231
 C          1.8237938786       -2.7919274015        0.6304189630
 N         -1.6623976614       -1.7783885619       -0.0302570241
 C         -2.1736476787       -0.5544038747        0.0158882081
 C         -3.5924279949       -0.3591423938       -0.1361337366
 C         -4.1413015302        0.7838468744       -0.7343992709
 C         -5.5084814293        0.9061642899       -0.8739288679
 C         -6.3554908898       -0.0987170800       -0.4309335428
 C         -5.8208599039       -1.2488542774        0.1363442253
 C         -4.4572646315       -1.3837028232        0.2749424386
 C         -1.1116391506        0.4271490211        0.0877903048
 C         -1.2147444437        1.8367013659        0.1767201630
 C         -0.3077399582        2.7167192586       -0.4637759408
 C         -0.4609188064        4.0773720427       -0.3638808439
 C         -1.5016681197        4.6274919867        0.3805822355
 C         -2.4032418100        3.7803978335        1.0197168705
 C         -2.2718648158        2.4173656742        0.9236651671
 C          1.8045105662        1.1307303144        0.8580617820
 C          3.0947601154        1.6015189555        0.8012233872
 H          6.5951734164        0.3771794675       -1.3432644734
 H          6.9001728840        2.1219537019       -1.4094603303
 H          5.5280165266        1.4423216744       -2.2834077701
 H          5.5762804172        3.4213700109        0.8083585115
 H          6.9433671258        2.2925132059        0.8252786485
 H          5.5308504024        1.9662575339        1.8275733346
 H          4.2198317921       -0.2774625906       -1.7865423653
 H          1.9316372967       -1.0847417603       -1.6968360283
 H         -1.0697417872       -4.0953638474       -0.5747934244
 H          0.2666895822       -6.1673222270       -0.4253647464
 H          2.6060393813       -6.0731407536        0.3758886570
 H          3.5644301101       -3.9157322294        1.1017318887
 H          2.2429385126       -1.8716211369        1.0040197669
 H         -3.4904574430        1.5543228294       -1.1175499179
 H         -5.9195926423        1.7903004667       -1.3395644641
 H         -7.4249856154        0.0074606675       -0.5372663028
 H         -6.4774130821       -2.0385989529        0.4717728984
 H         -4.0255970847       -2.2686263384        0.7162091506
 H          0.4815433336        2.3108984082       -1.0779405078
 H          0.2324727586        4.7296955954       -0.8762038935
 H         -1.6074191934        5.6984623943        0.4615561535
 H         -3.2084237797        4.1993498249        1.6064101215
 H         -2.9549323728        1.7680678279        1.4504882204
 H          1.1260187569        1.5126585817        1.6055681496
 H          3.3929998858        2.3645745256        1.5014754084
  57
        -83.53484663
 C          6.1619822643        1.3242287399       -1.2947959784
 N          5.3084540019        1.5580809913       -0.1588818384
 C          5.8783696014        2.2614259126        0.9611173165
 C          4.0135890332        1.1068631240       -0.1324372036
 C          3.5554918992        0.1462733158       -1.0499585510
 C          2.2581251301       -0.3061586739       -1.0184561160
 C          1.3533357866        0.1756711653       -0.0636529427
 N          0.0496925421       -0.2980461617       -0.0399679373
 C         -0.3331387512       -1.6665534151       -0.0170375165
 C          0.5069997124       -2.7951614945        0.1039448889
 C         -0.0422787899       -4.0583513627       -0.2392653871
 C          0.7110789259       -5.1996804538       -0.1602151795
 C          2.0337536115       -5.1462224082        0.2816409027
 C          2.5722538042       -3.9246717598        0.6730101377
 C          1.8346111594       -2.7676481889        0.5972507228
 N         -1.6604871198       -1.7690061701       -0.0408830541
 C         -2.1773227543       -0.5480186552        0.0090346630
 C         -3.6003902287       -0.3634663613       -0.1191381043
 C         -4.1694230047        0.7699205430       -0.7160524129
 C         -5.5401931123        0.8806780851       -0.8290592949
 C         -6.3703622857       -0.1263499283       -0.3598541843
 C         -5.8158549252       -1.2673787412        0.2064346777
 C         -4.4486322293       -1.3908088874        0.3181223521
 C         -1.1197999127        0.4390693923        0.0679481500
 C         -1.2257150776        1.8490327924        0.1477832360
 C         -0.3213333072        2.7241057983       -0.5029345355
 C         -0.4780569368        4.0853607496       -0.4183628660
 C         -1.5182400157        4.6407829333        0.3229913869
 C         -2.4146131278        3.7985519543        0.9757435405
 C         -2.2806324279        2.4348122795        0.8936039986
 C          1.7980862926        1.1372022977        0.8506442548
 C          3.0950739312        1.5908353221        0.8156655190
 H          6.9397084009        2.0867129266       -1.3213100787
 H          5.5907880088        1.3946776487       -2.2207642207
 H          6.6432184348        0.3393510467       -1.2520783948
 H          5.5127906296        1.8443804317        1.9002727505
 H          5.6425497620        3.3325925062        0.9367166480
 H          6.9616598038        2.1479351727        0.9424059712
 H          4.2254584213       -0.2638038900       -1.7877822443
 H          1.9263572444       -1.0444304002       -1.7330055219
 H         -1.0626326519       -4.0817590553       -0.5872807001
 H          0.2810994875       -6.1492492107       -0.4448372645
 H          2.6264811103       -6.0462546502        0.3400955532
 H          3.5818747225       -3.8853577093        1.0576161108
 H          2.2530888393       -1.8464435662        0.9690865515
 H         -3.5320196959        1.5421350538       -1.1180435393
 H         -5.9674923911        1.7575469767       -1.2938516656
 H         -7.4425975340       -0.0289694525       -0.4449223573
 H         -6.4595223468       -2.0589279069        0.5619969124
 H         -4.0014235578       -2.2688781536        0.7576269349
 H          0.4684128646        2.3131586562       -1.1131964724
 H          0.2114153110        4.7338850847       -0.9406560364
 H         -1.6272560585        5.7123186975        0.3915511697
 H         -3.2179774520        4.2221823418        1.5615922695
 H         -2.9592896155        1.7894973444        1.4309142639
 H          1.1145198189        1.5187977545        1.5937485841
 H          3.3953223237        2.3432072679        1.5264095365
  57
        -83.53408454
 C          5.5238879400        2.8718671735        0.9148949518
 N          5.1861992527        1.8572776816       -0.0517722282
 C          5.9648430016        1.8032680922       -1.2664997034
 C          3.9453908374        1.2636498852       -0.0203800751
 C          3.5809074595        0.2986808586       -0.9749681075
 C          2.3347010861       -0.2842624907       -0.9658419210
 C          1.3903056574        0.0692889684        0.0019216178
 N          0.0902207407       -0.4281782925       -0.0476671129
 C         -0.3348450671       -1.7790523638        0.0199029910
 C          0.4532625171       -2.9449096054        0.1132207396
 C         -0.1987874907       -4.1874837332       -0.1157215844
 C          0.4891082212       -5.3694069703       -0.0475973788
 C          1.8489906798       -5.3804287015        0.2662745204
 C          2.4960939122       -4.1771457723        0.5330066021
 C          1.8251890877       -2.9800567693        0.4663454695
 N         -1.6694800739       -1.8342104968        0.0285858831
 C         -2.1454024100       -0.5987912023        0.0393941784
 C         -3.5628360760       -0.3643395109       -0.0742097635
 C         -4.0916113946        0.7519110619       -0.7364596041
 C         -5.4578507602        0.9179524094       -0.8346839554
 C         -6.3225393758       -0.0164536536       -0.2846206938
 C         -5.8087615069       -1.1413063545        0.3482671361
 C         -4.4462721303       -1.3205197517        0.4449678697
 C         -1.0543498231        0.3535899006        0.0393604499
 C         -1.0997266691        1.7665046840        0.0404074694
 C         -0.1499669574        2.5633836001       -0.6493827235
 C         -0.2377824038        3.9321922293       -0.6342920340
 C         -1.2505990893        4.5769202337        0.0733141664
 C         -2.1913664960        3.8142112805        0.7610662972
 C         -2.1271970038        2.4433954312        0.7489910766
 C          1.7547254355        0.9997109675        0.9782895442
 C          3.0015042216        1.5797422824        0.9704453300
 H          6.5739204528        3.1354663728        0.8063129208
 H          5.3796928829        2.4891006465        1.9262509006
 H          4.9224667430        3.7816596491        0.7940381312
 H          6.3542428853        0.7955820537       -1.4341039655
 H          6.8113461473        2.4808413958       -1.1862505494
 H          5.3713680856        2.0973481804       -2.1388356836
 H          4.2769395739        0.0022499025       -1.7418793336
 H          2.0724725959       -1.0114433733       -1.7201645850
 H         -1.2473275013       -4.1619935249       -0.3654367004
 H         -0.0222120318       -6.3018528137       -0.2398579735
 H          2.3893930412       -6.3132305942        0.3181074757
 H          3.5410603238       -4.1844468306        0.8098532617
 H          2.3381964308       -2.0689929524        0.7282491293
 H         -3.4273914672        1.4655079670       -1.1989776502
 H         -5.8542778830        1.7809810670       -1.3499347280
 H         -7.3907639540        0.1243819459       -0.3581696336
 H         -6.4802209847       -1.8769213262        0.7668805578
 H         -4.0307524197       -2.1882247627        0.9335221494
 H          0.6168482097        2.0840448598       -1.2381551586
 H          0.4850397773        4.5176683573       -1.1853822530
 H         -1.3042878413        5.6546033246        0.0880770105
 H         -2.9744156245        4.3070480925        1.3195833213
 H         -2.8390700372        1.8622381563        1.3155514138
 H          1.0428995449        1.2693129943        1.7440708114
 H          3.2308288853        2.2981713439        1.7393387166
