93
 energy: -141.748842102137 gnorm: 0.000165693966 xtb: 6.7.1 (edcfbbe)
C            7.20872407698532        4.07021938205208        0.82768399877112
C            6.59224211679890        3.23068042178140       -0.30618698667352
C            6.72981417071671        3.96668757707682       -1.65153078050556
C            5.11980962509457        3.02782580416086       -0.00708480870423
C            4.29326259298345        4.13691376805400        0.11710464800124
C            2.95248735235079        4.02383693066168        0.43210991027407
C            2.41753387794648        2.76891204098983        0.65817871870250
C            3.21582750611888        1.65097691621766        0.53896996966578
C            4.56263020027436        1.75866727977206        0.17824917049286
N            5.34024636766363        0.61256869347921        0.04942146272563
C            4.72686896614649       -0.64941223935358        0.21251994527463
C            3.78326835497660       -1.08763289427170       -0.71486675975174
C            3.13318146534035       -2.29002715013016       -0.53169471669777
C            3.42705039517167       -3.08513365720199        0.57673305006111
C            2.71781184487802       -4.35919697513757        0.83618311123403
O            3.24014822362242       -5.30240046365973        1.39338050153407
C            1.29372866766742       -4.39930968492475        0.40789712752185
C            0.70817448451278       -5.59470775198717       -0.00691392937401
C           -0.61866310458035       -5.59388364445741       -0.39426444754583
C           -1.32385079542181       -4.39030416455527       -0.35795721865566
C           -2.72576009152459       -4.32640007119854       -0.87428059440750
O           -3.18524176035023       -5.23005395095992       -1.54308246237812
C           -3.46074718721792       -3.07580819756332       -0.59272286838129
C           -4.28975532092260       -2.56138630724412       -1.59000100893151
C           -4.91922529155406       -1.34575773313940       -1.42108785749606
C           -4.74883086040882       -0.63486571861768       -0.23577265980012
N           -5.34425136901742        0.63756621904675       -0.06953107046604
C           -6.72500690800635        0.73734982921639        0.04236240873822
C           -7.50674621845967       -0.42185112897354        0.04111598485922
C           -8.88030339210459       -0.35322107327937        0.13837484585174
C           -9.50245697684462        0.87687473082936        0.25141714745875
C           -8.72962402528023        2.02195650364306        0.28975257208777
C           -7.34483111497935        1.98152676693749        0.19550551886654
C           -6.55586925192197        3.27302782713173        0.29021042767626
C           -6.84857491420717        3.92463582823997        1.65415494879676
C           -6.99262624729472        4.20756102431079       -0.85279256728530
C           -5.06311660463816        3.03412368602682        0.17203160267987
C           -4.19535288315026        4.11674517941408        0.22949512385631
C           -2.82836903080001        3.97183359977594        0.08693746237921
C           -2.30507297393926        2.71263122271998       -0.14366767631901
C           -3.14360124644945        1.61958802130007       -0.20161547577151
C           -4.52348278764450        1.75808868020836       -0.01972107925053
C           -3.97490750293359       -1.17735536926260        0.78746677026879
C           -3.33058687705516       -2.38393795217234        0.61073141175432
N           -0.77716466787054       -3.25820681655361        0.07898245236855
C            0.47841804427856       -3.26451615696552        0.46172121234532
C            4.41411625876108       -2.67053302978679        1.47081229643476
C            5.04943038697530       -1.45821686002991        1.30040645190977
C            6.69736936588156        0.67996302516870       -0.24554373094502
C            7.42716520180582       -0.49789823450031       -0.43095214126362
C            8.77701989858340       -0.46201656373304       -0.70968606452908
C            9.42498281082319        0.75458813588206       -0.82203157545599
C            8.69764828230088        1.92087329525276       -0.67925119460303
C            7.33714700717911        1.91346106805310       -0.40086160955868
H            7.10046084112683        3.54705251856520        1.77603063680242
H            6.71496114473298        5.03439147495367        0.91023938115264
H            8.26642841190241        4.24404558313330        0.65088313384032
H            6.21753425826618        4.92434857524213       -1.62446423543965
H            6.29374867639774        3.36629841253502       -2.44788987099037
H            7.77393521251025        4.14677570266051       -1.89123159665856
H            4.70526250664129        5.12327426062539       -0.03240529735896
H            2.33768247749252        4.90680966791284        0.51519766649072
H            1.37984602329781        2.65599184618100        0.93489843852888
H            2.78939087823181        0.68009177173439        0.73795883771511
H            3.55877407516941       -0.46886507698559       -1.57093765964613
H            2.41140426243934       -2.62348857290969       -1.26270391622327
H            1.30514212143901       -6.49477751828452       -0.03205742941791
H           -1.11794761792403       -6.48813093557850       -0.73307539493116
H           -4.40186729090223       -3.11596803974309       -2.50966590695689
H           -5.53642646960052       -0.93154895374441       -2.20452921568543
H           -7.03102195478664       -1.38775870193591       -0.02826371059263
H           -9.46145904116856       -1.26313739155266        0.13014690133721
H          -10.57718584172360        0.94490182625518        0.32288713224205
H           -9.22575339861826        2.97434207731910        0.40003475187388
H           -6.53908927372063        3.25741820161114        2.45654585359129
H           -7.90966868483595        4.12787908991542        1.76815044386693
H           -6.30954849620433        4.86195230305739        1.76048876860716
H           -6.46517005022168        5.15604512358482       -0.80287420738590
H           -6.77440838538343        3.74383693829048       -1.81305680806119
H           -8.05907774297844        4.40892222661452       -0.80378612574951
H           -4.59424434939132        5.10736550072138        0.38700150703765
H           -2.18236941308772        4.83478005856119        0.14113123015898
H           -1.24315655002925        2.57739350554024       -0.28658991172210
H           -2.72305237663779        0.64585048557831       -0.39875363781525
H           -3.87405554442600       -0.63308483122508        1.71482155047194
H           -2.74080910495599       -2.79765111620010        1.41240356701501
H            0.85499069448627       -2.32218486449599        0.83864112386915
H            4.64791115988274       -3.30331750772021        2.31375761922461
H            5.79264171734974       -1.12256811803562        2.00816816074655
H            6.92967097965910       -1.45304826031048       -0.36532901183329
H            9.31834948749770       -1.38655788657029       -0.84302051682357
H           10.48241087826189        0.79680318085448       -1.03331141239257
H            9.20995744666690        2.86415275513009       -0.79276081595267
