93
 energy: -141.697511179197 gnorm: 0.000147367531 xtb: 6.7.1 (edcfbbe)
C            8.61183378071956        2.98179904534759        1.97906647342736
C            7.60636392235882        2.77238450863689        0.83147353480221
C            7.60590647463636        3.99446851877481       -0.10583444558181
C            6.22074115521269        2.61482559850553        1.42482613378791
C            5.67932754192929        3.64004445161521        2.18777856764354
C            4.42326829348539        3.54495713411116        2.75809449958343
C            3.67721589321917        2.39341279048979        2.57189410083479
C            4.18898639601148        1.35941753569305        1.81915084436431
C            5.45714810449734        1.45582394518794        1.23395162208916
N            5.94128152405682        0.40387340014292        0.48105109547266
C            5.12686312169051       -0.75289003871259        0.30908540698190
C            4.18007312400339       -0.78737839653851       -0.70781385298543
C            3.38378565869969       -1.90461026759944       -0.87166509654845
C            3.52701170117643       -3.00089296266384       -0.02312350680333
C            2.73275907495832       -4.24777751213558       -0.20359018939777
O            3.26955826490621       -5.34623083622453       -0.08695075783322
C            1.31762592337133       -4.11081901017996       -0.51604852331240
C            0.58561667685481       -5.21467703203750       -1.02389316652139
C           -0.74379199698797       -5.09820554216809       -1.29180968085370
C           -1.40097881013854       -3.86456126010314       -1.03736761516613
C           -2.81224584541733       -3.76917374550891       -1.34757795919324
O           -3.41255951658433       -4.74509740717702       -1.83588429001805
C           -3.55591431791834       -2.51956076258001       -1.09214290143427
C           -4.91384942420608       -2.52192756073000       -1.44397963835107
C           -5.69890512372639       -1.41058083338939       -1.24232223452061
C           -5.14522214071232       -0.26430690396160       -0.67896155142184
N           -5.94374118912905        0.89311876029816       -0.45969450552840
C           -6.61736823386369        1.02312134421363        0.73914370497499
C           -6.51502670520344        0.00927430917470        1.69977932734435
C           -7.17866435722090        0.10721436729617        2.90256020563231
C           -7.95754857151437        1.22064387883117        3.17146567973841
C           -8.05901389246367        2.22413284959660        2.22567154253576
C           -7.40206417619863        2.15319285464097        1.00496994083476
C           -7.54966929608865        3.28336551022755        0.00649619107698
C           -7.03058815689402        4.58173432266507        0.65243582033607
C           -9.03899786897454        3.42843269799975       -0.35793260143163
C           -6.76293507351438        3.02480311974476       -1.26243369874019
C           -6.78677419459212        3.95915885199973       -2.28864940044832
C           -6.08977783497424        3.77011326602142       -3.46774427284911
C           -5.34353614497637        2.61599774496420       -3.64045694099874
C           -5.30096732743107        1.67111393547642       -2.63942724966780
C           -6.00428951196603        1.86065274856024       -1.44334166330808
C           -3.79958738564701       -0.24779665872976       -0.32385726927171
C           -3.01663738145009       -1.36420971912276       -0.53027971308297
N           -0.69584138068755       -2.85414223887156       -0.51838317647266
C            0.57762264240894       -2.94463274783932       -0.26602137110629
C            4.50063572239173       -2.96761522898034        0.97341033777674
C            5.28888112324642       -1.84825392110964        1.14945790866376
C            7.19006766437227        0.43655749842781       -0.11039000877865
C            7.62237175258237       -0.65677897826762       -0.87029690892438
C            8.86313515215218       -0.65415550229922       -1.46870970859627
C            9.69657671367420        0.44207361425060       -1.32264066369443
C            9.26894605707159        1.52636911727797       -0.57882572937153
C            8.02452170823046        1.55224314851818        0.03543336989960
H            8.60705044201102        2.11588645142294        2.63837771105292
H            8.35464174610291        3.86000625530430        2.56442805783054
H            9.61856255827809        3.11318266385029        1.59283353791242
H            7.32304147391943        4.89508912072586        0.43170515969563
H            6.89535245113116        3.84003537316567       -0.91569382298267
H            8.58992601479506        4.15115960816010       -0.53838609823862
H            6.25001443671660        4.54234701021015        2.34623393985221
H            4.03249536047998        4.36175054636426        3.34516414175837
H            2.69688939862222        2.29905872034233        3.01386940950231
H            3.60750592694981        0.46129767100297        1.68005616402432
H            4.07769784275812        0.06302061395387       -1.36602299105994
H            2.66618515366820       -1.93725770193752       -1.67813247916891
H            1.11534002455985       -6.13938197385626       -1.19811942064611
H           -1.34090079840251       -5.90256603422700       -1.69353813207442
H           -5.31997734106203       -3.42388172893529       -1.87712610004455
H           -6.74387628312068       -1.41547323330723       -1.51507711647617
H           -5.90789748007165       -0.85793665194832        1.49249322987774
H           -7.08761910172523       -0.68529939629080        3.62956691304721
H           -8.48201309301329        1.30793941597804        4.11050760410074
H           -8.66935460782475        3.08526270103450        2.45128859703598
H           -5.97885984262973        4.47260465360745        0.91035503836188
H           -7.58396615726563        4.81146189914440        1.55850660084501
H           -7.13121032003538        5.42089290140053       -0.02997252276130
H           -9.18807524419537        4.24154105034488       -1.06262723703662
H           -9.40012882510729        2.50834468393179       -0.81341641649023
H           -9.63634381832866        3.63078020355805        0.52647931123232
H           -7.36456589732005        4.86317200843226       -2.17076607968342
H           -6.13006885873823        4.51741046301510       -4.24520108867602
H           -4.79467463962795        2.45125121287164       -4.55511704694593
H           -4.71995815759890        0.77243751296646       -2.77553823209161
H           -3.37945758037927        0.64646825670101        0.11340816396987
H           -1.97108668577324       -1.35394424459240       -0.25469545990400
H            1.03695682367009       -2.07245351174566        0.18219754061771
H            4.62379724823646       -3.83320159615756        1.60646865742562
H            6.03680671191225       -1.81485804949226        1.92784367808586
H            6.97488387357521       -1.51141167710595       -0.98887215560443
H            9.17804414075600       -1.50784334110041       -2.04916923660126
H           10.67106697197045        0.45467171341459       -1.78593269439933
H            9.92867869367947        2.37466773628709       -0.47812541851501
