  93
       -141.69586406
 C         11.0421901408       -0.3048326552        1.8702897523
 C         10.4155831086       -0.3245374618        0.4635931936
 C         11.4897620447       -0.6424549344       -0.5935764866
 C          9.8379472234        1.0457042398        0.1711778433
 C         10.6696027727        2.1568839700        0.1742872784
 C         10.1928970474        3.4296352315       -0.0804169278
 C          8.8454003278        3.6119145065       -0.3429964479
 C          7.9960556962        2.5275042787       -0.3535357999
 C          8.4775034024        1.2366764786       -0.1041615095
 N          7.6023928020        0.1678846269       -0.1257472006
 C          6.2325420628        0.4030716147       -0.4410767717
 C          5.3047342833        0.5767197881        0.5792774259
 C          3.9737073929        0.7869549586        0.2732689817
 C          3.5573435345        0.8290216003       -1.0557014073
 C          2.1415105051        1.0977373425       -1.4383608784
 O          1.8953910540        1.8961517003       -2.3432557248
 C          1.1088580822        0.3742569994       -0.7264442486
 C          1.3059386727       -0.7420485341        0.1228163320
 C          0.2372840175       -1.3537622488        0.7093582641
 C         -1.0755967459       -0.8801737659        0.4539233903
 C         -2.1867065661       -1.5400110404        1.1114026636
 O         -1.9847711614       -2.4590030827        1.9208881282
 C         -3.5744155816       -1.1131681610        0.8254097665
 C         -3.9480900600       -0.2571307636       -0.2082105888
 C         -5.2727629579        0.0711262533       -0.4076641044
 C         -6.2543125980       -0.4528021312        0.4279912868
 N         -7.6163897016       -0.0976227661        0.2174151820
 C         -8.4174914636       -0.9313796725       -0.5376386386
 C         -7.8828487465       -2.1180341822       -1.0550413571
 C         -8.6598185465       -2.9756144854       -1.8016204918
 C         -9.9864649450       -2.6642997210       -2.0504113962
 C        -10.5145231125       -1.4886726549       -1.5495084231
 C         -9.7560964499       -0.6050123811       -0.7942425416
 C        -10.3859167350        0.6728042123       -0.2784002865
 C        -11.5737769679        0.3061603734        0.6306938931
 C        -10.8722094683        1.5015626347       -1.4819728477
 C         -9.4048698362        1.5052916262        0.5215720247
 C         -9.8151646506        2.7125500271        1.0701920075
 C         -8.9632614831        3.5046597936        1.8174614948
 C         -7.6607692619        3.0866599638        2.0360347780
 C         -7.2253184451        1.8936828608        1.5036212777
 C         -8.0830372910        1.0935463675        0.7382045230
 C         -5.8979794123       -1.3170320587        1.4591036034
 C         -4.5752374854       -1.6469111098        1.6484721213
 N         -1.2348589918        0.1599827308       -0.3740561414
 C         -0.2332465951        0.7541770212       -0.9391484324
 C          4.5009870717        0.6907708293       -2.0713204216
 C          5.8289822912        0.4665567210       -1.7695891920
 C          8.0169706326       -1.1264569074        0.1207107252
 C          7.0861298678       -2.1710579642        0.0691324054
 C          7.4678843804       -3.4710760329        0.3171765503
 C          8.7889044175       -3.7552659632        0.6200802636
 C          9.7123906776       -2.7270493669        0.6629135611
 C          9.3571807991       -1.4081178003        0.4166062787
 H         10.2796348394       -0.0759268066        2.6123816558
 H         11.8221103218        0.4484331029        1.9363167879
 H         11.4791545161       -1.2691339256        2.1134423535
 H         11.0425980373       -0.6490905612       -1.5858108913
 H         11.9358744129       -1.6161269035       -0.4120471888
 H         12.2800859887        0.1025239374       -0.5784252789
 H         11.7217097865        2.0323170281        0.3806249190
 H         10.8679156924        4.2715142347       -0.0717196208
 H          8.4545838469        4.5985455509       -0.5399031937
 H          6.9465798742        2.6734260488       -0.5564413381
 H          5.6350863280        0.5473174529        1.6073478480
 H          3.2601146451        0.9464955462        1.0680201986
 H          2.3022952232       -1.1274046575        0.2853835143
 H          0.3362823501       -2.2070777578        1.3629967777
 H         -3.1861969567        0.1560298267       -0.8537379539
 H         -5.5603080438        0.7350501854       -1.2097262488
 H         -6.8487670680       -2.3599883204       -0.8665285716
 H         -8.2295702756       -3.8861166026       -2.1898567715
 H        -10.6048052962       -3.3294661966       -2.6332609335
 H        -11.5482408030       -1.2581705049       -1.7574946668
 H        -11.2239652913       -0.2797864124        1.4784461705
 H        -12.3095698401       -0.2806227169        0.0882915437
 H        -12.0623005206        1.1995052795        1.0092096119
 H        -10.0295734388        1.7547996190       -2.1224170310
 H        -11.5947036526        0.9431372003       -2.0702925529
 H        -11.3417983777        2.4239276890       -1.1523762915
 H        -10.8282602365        3.0501888919        0.9135250785
 H         -9.3145818655        4.4385984816        2.2282631439
 H         -6.9836266911        3.6896098450        2.6215658370
 H         -6.2116126084        1.5687106210        1.6776277338
 H         -6.6662835858       -1.7213954998        2.1015048261
 H         -4.2742044797       -2.3194769165        2.4377487914
 H         -0.4423460515        1.5859899057       -1.5997868713
 H          4.1734928839        0.7567375257       -3.0976141121
 H          6.5609599813        0.3445356140       -2.5542760669
 H          6.0572062706       -1.9534822757       -0.1712104061
 H          6.7343552394       -4.2616179714        0.2728762489
 H          9.0991957805       -4.7696462539        0.8178897713
 H         10.7390755436       -2.9660774987        0.8947825574
