121
 energy: -189.672879996534 gnorm: 0.000082781091 xtb: 6.7.1 (edcfbbe)
C           -8.58141487168280       -0.20079385999550        0.67852333759997
C           -7.55804858140871       -0.40588762810270        1.58868854568223
C           -6.64558569225575       -1.42572399388003        1.39422211791955
C           -6.74479234629341       -2.24238672283223        0.27129913282739
N           -5.80893107433493       -3.26404500381699        0.05586637102063
C           -6.09617182567633       -4.57627491036994       -0.26649149795816
C           -7.32440299178535       -5.21494053901315       -0.35530843245930
C           -7.32999540266812       -6.56058715041327       -0.67046937843151
C           -6.14613237885598       -7.26218479434212       -0.88546191497042
C           -4.91968314814778       -6.63680124179110       -0.77587544520376
C           -4.88825321862242       -5.28559057523340       -0.46006139104442
C           -3.82313059791702       -4.34354901292289       -0.24979676304042
C           -2.44267959644106       -4.43581186444709       -0.32635599367768
C           -1.67315526418267       -3.29906557196777       -0.10325516901405
C           -0.21058590593058       -3.33902416310109       -0.18894504687912
C            0.47442392241350       -2.26907274115763       -0.79033966838718
C            1.84817236202914       -2.21264955659973       -0.83321441122947
C            2.56862746264359       -3.23863016404985       -0.23232928804293
C            1.89770094234675       -4.36721145110536        0.30312727995900
C            0.51373063031750       -4.41213432191824        0.32333464473441
C            2.92466478773676       -5.25842232366805        0.76601633187624
C            2.89858236947014       -6.50506074962406        1.37355045232600
C            4.09621861273697       -7.08821025708068        1.74219706748390
C            5.30641553166622       -6.43153173344697        1.53101831747111
C            5.35772767216951       -5.18939456217283        0.92531778372888
C            4.16294114724167       -4.61359251653465        0.51757932648497
N            3.93059830841336       -3.39270337945643       -0.09177704871575
C            4.86889371707397       -2.40386772106090       -0.37518597031501
C            6.12728478431851       -2.68790363811663       -0.96130489735622
C            7.01134420616436       -1.68455984172824       -1.20645473496479
C            6.72939417485701       -0.30817747529659       -0.93448318844220
C            7.65691954378522        0.67156692123950       -1.34797600768158
C            7.38095038491964        2.06537869655491       -1.48540357050172
C            8.35939286140723        2.92646621600198       -1.88786593524348
C            9.64564941515274        2.44125337406698       -2.18726819364515
C            9.83556217937367        1.07102188092096       -2.08240105813623
N            8.90890174380394        0.24241668285517       -1.68926119061248
C            5.46911557851603       -0.05152601356251       -0.28918223788207
N            5.07170156392886        1.22518645819973        0.14836899032096
C            5.65005031988380        1.97355730104864        1.15675541936052
C            6.89004396503240        1.82367464175707        1.75731707066409
C            7.23448437668050        2.72172532942570        2.75011300850636
C            6.36729399692077        3.73899080546922        3.14198968953812
C            5.12341788039417        3.88220281600237        2.55658094946659
C            4.75392148355610        2.99426075095514        1.55665751075885
C            3.56702171987853        2.83542675964369        0.75790135929018
C            2.33511431598710        3.46833498999654        0.72018202673647
C            1.37001368065006        3.03017658943384       -0.18366533046520
C            0.01465417147616        3.59102389782907       -0.17587690195735
C           -0.20726455450537        4.95203111112335        0.08225255836128
C           -1.47479941238738        5.49365162784089        0.13313595061399
C           -2.55721009752799        4.64778125572094       -0.07028276981500
C           -2.35492329573314        3.28092004356721       -0.36946829436078
C           -1.07432673383738        2.75762105841564       -0.41332204471813
C           -3.65710872148344        2.71028264586218       -0.57494652375146
C           -4.09895033733910        1.43446646938737       -0.89729963249008
C           -5.45786310927835        1.21104870138219       -0.99826407556529
C           -6.36949901222757        2.23918159556084       -0.77091285881974
C           -5.95290860820526        3.52022870681796       -0.46193591502106
C           -4.58775378562551        3.75711289620070       -0.38493727199045
N           -3.90918567929699        4.92223221394912       -0.08268223984222
C           -4.49368720270760        6.17326231785555        0.15896446177420
C           -4.13705299782502        6.90573933798043        1.28756928181499
C           -4.71038782367981        8.14264000823125        1.51691871128179
C           -5.64710893466542        8.65344548174019        0.63379813074310
C           -6.00678711580339        7.92331407285910       -0.48690178971288
C           -5.43141872047402        6.69015152696281       -0.73045440282731
C            1.68862421664244        2.01029811551363       -1.09672705722482
C            2.90459170711778        1.36730906809308       -1.07493522684018
C            3.82380244018745        1.74347523475447       -0.10422721600090
C            4.58837851565017       -1.07616728253593       -0.03597198489827
C           -2.30749280561089       -2.08518937468863        0.20773340313558
C           -3.67730113257174       -1.97445414875699        0.30478772789077
C           -4.43893707312914       -3.11182803751429        0.07375028183782
C           -7.76977902642025       -2.03022350197247       -0.64662514171328
C           -8.68577736250974       -1.01625261570901       -0.43610524275040
H           -9.29651852273424        0.59205022704010        0.83869181237878
H           -7.47340453074439        0.22740185835504        2.45903653473030
H           -5.86200492267893       -1.60407602906357        2.11503890127775
H           -8.24631527185679       -4.68354756808853       -0.17257832146825
H           -8.27355731125263       -7.08031286271324       -0.74791818655656
H           -6.19277893629398       -8.31231517640439       -1.13244143556927
H           -4.00174964726685       -7.18427154046642       -0.92782360240435
H           -1.97297954506389       -5.37112165068337       -0.59079125393240
H           -0.09759299543429       -1.47990988624499       -1.25461926011615
H            2.34648390664569       -1.39607882892020       -1.32826345643619
H            0.00239444215559       -5.25305344886615        0.76732057349693
H            1.95880611195392       -7.00337591374558        1.55829716805545
H            4.09716784198393       -8.05949444494705        2.21402017854139
H            6.22481524720084       -6.89942204040847        1.85282528472505
H            6.29982374787139       -4.68113343801088        0.79376186832801
H            6.36008286696993       -3.70223501023709       -1.24740021610554
H            7.96591588716644       -1.89552331209423       -1.66289313216693
H            6.37507708012070        2.42022016869946       -1.33287528203916
H            8.14573244419039        3.98023210643805       -1.99898412620060
H           10.44578927164781        3.09571145290792       -2.48922799090815
H           10.79633791125280        0.62405894374130       -2.31010116064170
H            7.56190516619650        1.03537433186653        1.45534286347402
H            8.19651472605996        2.63286540929863        3.23237132811647
H            6.67398450573693        4.42312102871606        3.91935120392044
H            4.45056684647481        4.66711471698103        2.86827862916208
H            2.11381094037320        4.26642489918842        1.41263950982706
H            0.64419024915369        5.60115078979299        0.22234033886068
H           -1.61591845204513        6.54881552141606        0.31336781231068
H           -0.92880409972504        1.70569622253979       -0.60589714973702
H           -3.39032155808325        0.63821567104236       -1.06770219701318
H           -5.82671911633761        0.22767922674470       -1.24980888549045
H           -7.42598373301663        2.02741797609735       -0.83947363047002
H           -6.66897226618518        4.30718162518972       -0.27870308573261
H           -3.42299911252163        6.49417245708676        1.98518904252513
H           -4.43000665076393        8.70686598013239        2.39403118864452
H           -6.09526467111731        9.61801210214454        0.81814214789195
H           -6.73307970575923        8.32003290733649       -1.18074199332743
H           -5.69153675070013        6.12831214917170       -1.61512975188052
H            0.96295956135365        1.73764995146894       -1.84812562555794
H            3.14884195003287        0.60165607418574       -1.79579932046883
H            3.67582951658332       -0.85401510859947        0.49903289654148
H           -1.69714202426380       -1.21591988765036        0.40435450600897
H           -4.13951047887460       -1.02965787795687        0.54559510411598
H           -7.83277595945262       -2.65186249337452       -1.52752629986168
H           -9.47858039033042       -0.85675161902828       -1.15213147785416
