121
 energy: -189.758859288116 gnorm: 0.000053163875 xtb: 6.7.1 (edcfbbe)
C          -13.38149484542014       -3.88540066240952       -3.04807331606375
C          -13.03151575068047       -2.54701738193597       -2.98134342311632
C          -12.17808916973178       -2.09752097887110       -1.99103198592745
C          -11.65799765776973       -2.99406641433332       -1.06181981187495
N          -10.78597368287058       -2.54426022986746       -0.06113311852212
C          -10.90206827028030       -2.80172860870000        1.29062263024062
C          -11.89154355740576       -3.49005934323539        1.97782537144343
C          -11.78047790257784       -3.57802037370037        3.35229473213372
C          -10.71810394773763       -2.99068459848218        4.03580137097731
C           -9.74347404677820       -2.28422948044339        3.36000371118878
C           -9.83334938119408       -2.18172493816797        1.97828554519858
C           -9.03291086759460       -1.52584310268254        0.98206977400933
C           -7.86355513004751       -0.78342692183166        1.03997364295911
C           -7.31684596959199       -0.28564180438670       -0.13542029582633
C           -6.08255408588656        0.51339653990734       -0.10583811809169
C           -5.01819184034752        0.13033579420511        0.72139002518066
C           -3.84037490858955        0.84647346762735        0.78289666163760
C           -3.73172909794866        1.98951647908000        0.00414851562199
C           -4.78362133188257        2.37994920538209       -0.85412607383067
C           -5.95585263500463        1.64206209995118       -0.90493122129931
C           -4.33187185026668        3.55486135221518       -1.54662394854333
C           -4.91713281165554        4.39116523453286       -2.48738815872200
C           -4.19793627021523        5.47635710632143       -2.94714238350940
C           -2.91773014811247        5.74084056857396       -2.46699793192719
C           -2.31648481495310        4.92301134538004       -1.52956189801798
C           -3.02211991854832        3.81567174329362       -1.08356076439943
N           -2.67115686187922        2.86475500787308       -0.14385662750229
C           -1.45197061996644        2.78809248235479        0.53565216541395
C           -1.42535847492820        2.61374748850795        1.91851223566169
C           -0.21722615890916        2.52210240342560        2.57735709949126
C            0.98985090442077        2.62610330894066        1.89283248920999
C            2.25404048622234        2.56745999099841        2.64646730449684
C            3.31350250109058        3.43700299097018        2.38208797875661
C            4.48594839633324        3.29053720401187        3.09985904777589
C            4.56342479729560        2.29938106661647        4.06606551084579
C            3.43901103142183        1.51972627757220        4.28816191453435
N            2.31879566808416        1.64639318950989        3.60404505593267
C            0.96048978675561        2.77336339914735        0.49894243476378
N            2.15076101678283        2.79008251979853       -0.24362958431637
C            2.56600314980788        3.80165937753150       -1.08568069987758
C            1.92204233189196        4.97907011181200       -1.43439657499695
C            2.57672674964446        5.84576659400401       -2.28836309077592
C            3.84823899028310        5.55810263673153       -2.77895226669072
C            4.50509297507274        4.39917898772326       -2.41506547867742
C            3.86678675557843        3.51220698772671       -1.55870826137520
C            4.24727967325399        2.26045554940120       -0.96442584703975
C            5.39110507010465        1.48001489203294       -1.03829931904872
C            5.45100130848151        0.29715300934685       -0.31417523786341
C            6.65893570213465       -0.54135403769667       -0.34540791860544
C            7.33322305542987       -0.76251812603723       -1.55385145061048
C            8.46112145642327       -1.55344110203828       -1.63078207096735
C            8.92589652244998       -2.14102201116161       -0.46280764265035
C            8.27922123370271       -1.90462420650732        0.77168109921358
C            7.14321870602030       -1.11208919448346        0.82433052274660
C            9.03737269703817       -2.60644691979690        1.76949830779520
C            8.89366813152922       -2.76483801610117        3.14133062724127
C            9.80892727020479       -3.54720970859107        3.81645820800712
C           10.84787339427980       -4.18032939189311        3.13783490850166
C           11.01152412586750       -4.03802493599982        1.77319655792154
C           10.10953989196015       -3.23254977233928        1.09288621539453
N           10.03007401846144       -2.94331347897604       -0.25513903940573
C           10.91033181411512       -3.39938964318125       -1.24583173345322
C           10.41397755815320       -4.00608520247774       -2.39622978321612
C           11.28530973231929       -4.45229509833671       -3.37227833447948
C           12.65292523959422       -4.30841257244308       -3.20723844942751
C           13.14859627674808       -3.70892562960888       -2.06131473986428
C           12.28476770652370       -3.24974408587010       -1.08445506086947
C            4.34672684970431       -0.10452404008980        0.45071781937523
C            3.19441775743474        0.64828967454974        0.52848951787758
C            3.16014845756641        1.85120941364444       -0.16152349725126
C           -0.25411525167646        2.85480366910225       -0.16796766769576
C           -7.94347880656026       -0.55797950012996       -1.35935459244895
C           -9.10330272957899       -1.30014144764530       -1.44128705728121
C           -9.66022109849050       -1.77067700733092       -0.26065810970098
C          -12.00663792814632       -4.33977070777673       -1.13348528244090
C          -12.86937333153332       -4.77777989487343       -2.12089549045319
H          -14.05121390542632       -4.23206428357573       -3.82054206005151
H          -13.43186801851309       -1.84688127855707       -3.69969713818135
H          -11.92057469948086       -1.05115863495167       -1.92206804596281
H          -12.72857939756903       -3.93330589945205        1.45953724432671
H          -12.53676962197054       -4.11112544381701        3.90954183418136
H          -10.66609348509596       -3.08419659004297        5.11040956993247
H           -8.92893233303309       -1.81462229283108        3.89068413626594
H           -7.39455718802182       -0.58111497669032        1.99113888264015
H           -5.11583183719358       -0.77015763558849        1.30956616818936
H           -3.02531624935733        0.51234357646127        1.40685367827488
H           -6.76578133658768        1.95226872375370       -1.54772648229138
H           -5.91677487021476        4.19545149088353       -2.84495360577788
H           -4.63354989473516        6.13778751805935       -3.68114550199426
H           -2.38421409465517        6.60610969410916       -2.83188709945040
H           -1.33327893161778        5.15111646443768       -1.14856797645361
H           -2.35278516083038        2.56735769246744        2.46792108121759
H           -0.18681250300008        2.38747177927880        3.64734817665068
H            3.21725127803513        4.21603114225270        1.64132484931255
H            5.32740928109620        3.94038880458080        2.90756038318851
H            5.46526449608822        2.14445143524294        4.63727836142164
H            3.43190397281307        0.74906134983947        5.04867430628055
H            0.94556144347624        5.21849234076524       -1.04177502331894
H            2.09377359594117        6.76737090787420       -2.57795865333511
H            4.32691828324358        6.25948127559817       -3.44601696562881
H            5.49737141313029        4.18489325107414       -2.78250087865631
H            6.23268318528500        1.80246099970964       -1.63281351184574
H            6.94388964685206       -0.31369924794204       -2.45579262601941
H            8.96775784197552       -1.70203295468869       -2.57263548607965
H            6.65464152591681       -0.92112491116471        1.76818786454960
H            8.07817169603897       -2.28719856283355        3.66341262443859
H            9.71713425826553       -3.68148179009083        4.88407439752906
H           11.53915962622984       -4.79979002894594        3.69015627619627
H           11.80905843422816       -4.54824887995505        1.25430548904234
H            9.34824299315934       -4.13677563962636       -2.51079731210650
H           10.89445518837366       -4.92293630051771       -4.26233659581553
H           13.33047238250931       -4.66248725281881       -3.96944294561668
H           14.21412637982182       -3.59048255870859       -1.93056724198434
H           12.66649073405548       -2.76173599226994       -0.20005576323060
H            4.39501985218708       -1.04600676087208        0.97747841752043
H            2.35072482763849        0.30988540952318        1.11018805894106
H           -0.26440860582692        2.93270093633699       -1.24495966107892
H           -7.48674422626901       -0.19553896125561       -2.26853519517555
H           -9.55230960972526       -1.51861501776323       -2.39863359428883
H          -11.58717638893158       -5.03638606768047       -0.42300150573312
H          -13.13596601371204       -5.82314642905236       -2.17189757284488
