  121
       -189.66968812
 C         -8.5899039991       -0.2250623053        0.5498950928
 C         -7.5569673516       -0.3553275349        1.4631506209
 C         -6.6264890777       -1.3676976972        1.3241429710
 C         -6.7176286934       -2.2531876255        0.2538993522
 N         -5.7678436186       -3.2723036014        0.0962415531
 C         -6.0398934825       -4.6056881922       -0.1439412802
 C         -7.2600973133       -5.2638589274       -0.1889775446
 C         -7.2494756850       -6.6266859598       -0.4201765018
 C         -6.0575564525       -7.3255725185       -0.5948526763
 C         -4.8386397877       -6.6793774042       -0.5277342937
 C         -4.8238461217       -5.3110339063       -0.2964064018
 C         -3.7698818137       -4.3452579272       -0.1454233116
 C         -2.3892726468       -4.4269783718       -0.2171905010
 C         -1.6306664906       -3.2704412111       -0.0616002342
 C         -0.1694311780       -3.3033462982       -0.1420941638
 C          0.5137036966       -2.2519556750       -0.7813842345
 C          1.8872042903       -2.1909524373       -0.8204429863
 C          2.6106319776       -3.1903621871       -0.1794226958
 C          1.9425166863       -4.3042981762        0.3937942951
 C          0.5590834656       -4.3538870499        0.4110753504
 C          2.9711148175       -5.1734534055        0.8903898618
 C          2.9488376770       -6.3984883776        1.5416968673
 C          4.1477368751       -6.9619737069        1.9359350924
 C          5.3559707844       -6.3079635840        1.7062117707
 C          5.4034750235       -5.0874403967        1.0558339408
 C          4.2084025461       -4.5325441777        0.6236835883
 N          3.9724737073       -3.3326559450       -0.0280738234
 C          4.9041745336       -2.3461777865       -0.3302372714
 C          6.1754399452       -2.6348802333       -0.8875757395
 C          7.0538062579       -1.6293756722       -1.1469460208
 C          6.7553216429       -0.2514010256       -0.9159883309
 C          7.6818711186        0.7295453041       -1.3430667802
 C          7.3809657097        2.1093258709       -1.5336342258
 C          8.3557992782        2.9744402621       -1.9453694499
 C          9.6515579269        2.5005552535       -2.1976815860
 C          9.8618378039        1.1362220183       -2.0377526416
 N          8.9432721630        0.3024561442       -1.6367359504
 C          5.4834722522        0.0128158355       -0.3005254963
 N          5.0708936402        1.2943068520        0.1056339113
 C          5.6297543174        2.0634391832        1.1102465342
 C          6.8663326419        1.9389113330        1.7226541742
 C          7.1868197221        2.8499768061        2.7122109735
 C          6.2995517074        3.8558496680        3.0876883163
 C          5.0591630734        3.9747106607        2.4891284832
 C          4.7131154912        3.0725451415        1.4934770554
 C          3.5355567146        2.8863033427        0.6872148745
 C          2.2921381169        3.4943266220        0.6370023182
 C          1.3410358492        3.0332774889       -0.2714934244
 C         -0.0249943287        3.5644840107       -0.2706136162
 C         -0.2809829878        4.9129253329        0.0241021910
 C         -1.5606937036        5.4233810158        0.0824404170
 C         -2.6220818317        4.5595887331       -0.1546781139
 C         -2.3862490301        3.2085323359       -0.4986453880
 C         -1.0940585584        2.7153823047       -0.5450864445
 C         -3.6737852008        2.6166196102       -0.7350677039
 C         -4.0847824805        1.3437832421       -1.1067540228
 C         -5.4378162279        1.0946055521       -1.2277201381
 C         -6.3738998028        2.0937315066       -0.9731253222
 C         -5.9881484289        3.3715963360       -0.6138502359
 C         -4.6294577566        3.6350355445       -0.5153913978
 N         -3.9792523530        4.8036154624       -0.1668797466
 C         -4.5937223527        6.0250943313        0.1422783281
 C         -4.2535476340        6.7005341401        1.3110598081
 C         -4.8575966014        7.9069663919        1.6116972198
 C         -5.8082557596        8.4439027862        0.7593568744
 C         -6.1506515176        7.7709020348       -0.4018226681
 C         -5.5451714207        6.5684179925       -0.7161522649
 C          1.6879304630        2.0150972496       -1.1779134689
 C          2.9138275927        1.3924448920       -1.1396695808
 C          3.8179877417        1.7906958270       -0.1633990952
 C          4.6055007273       -1.0119784595       -0.0361964478
 C         -2.2797132171       -2.0467882558        0.1760438046
 C         -3.6505223531       -1.9454493246        0.2656779167
 C         -4.4001224915       -3.1030976543        0.1037986137
 C         -7.7511872362       -2.1151157243       -0.6686239258
 C         -8.6849006513       -1.1075911809       -0.5133132369
 H         -9.3195602964        0.5619296629        0.6675173162
 H         -7.4789684853        0.3311109730        2.2928765080
 H         -5.8356508572       -1.4875421798        2.0490684499
 H         -8.1883081391       -4.7340750473       -0.0362868166
 H         -8.1866023493       -7.1617541961       -0.4621695370
 H         -6.0914211262       -8.3893688829       -0.7764807277
 H         -3.9141625443       -7.2236725718       -0.6484466653
 H         -1.9103580538       -5.3712941027       -0.4273262224
 H         -0.0597300990       -1.4850816213       -1.2796146164
 H          2.3838676228       -1.3915547274       -1.3447484098
 H          0.0506052801       -5.1786517228        0.8874569933
 H          2.0108093469       -6.8949473053        1.7398126724
 H          4.1510558018       -7.9156993559        2.4423644759
 H          6.2752823882       -6.7590921387        2.0483509052
 H          6.3439763478       -4.5800634183        0.9104959104
 H          6.4211959876       -3.6541187821       -1.1434088872
 H          8.0170691488       -1.8423740230       -1.5833748300
 H          6.3669022102        2.4536103122       -1.4135797763
 H          8.1268244850        4.0203870290       -2.0958751413
 H         10.4476794035        3.1567399151       -2.5071377822
 H         10.8360687346        0.7003836475       -2.2275709226
 H          7.5537967500        1.1593388702        1.4334312567
 H          8.1452910774        2.7799281878        3.2044136179
 H          6.5873671634        4.5505966577        3.8628408342
 H          4.3710209543        4.7512544190        2.7880794133
 H          2.0512784523        4.2902146893        1.3252913893
 H          0.5533308412        5.5781953935        0.1883284683
 H         -1.7278472778        6.4687931484        0.2944589786
 H         -0.9248149483        1.6730017338       -0.7671415692
 H         -3.3578930979        0.5692458373       -1.2988226822
 H         -5.7823066431        0.1124599168       -1.5158060603
 H         -7.4247858158        1.8621398102       -1.0597818809
 H         -6.7230838591        4.1356055987       -0.4097412924
 H         -3.5278125431        6.2675338764        1.9832179089
 H         -4.5898912954        8.4267044139        2.5197003150
 H         -6.2804578632        9.3844394728        0.9991869088
 H         -6.8878189734        8.1885908940       -1.0714047784
 H         -5.7931267733        6.0517673499       -1.6313815286
 H          0.9766492551        1.7272164077       -1.9371084641
 H          3.1771368205        0.6253166135       -1.8523106906
 H          3.6832144960       -0.7837776562        0.4791636150
 H         -1.6800110088       -1.1604409602        0.3222166545
 H         -4.1228191288       -0.9926109789        0.4483548388
 H         -7.8075875409       -2.7897007961       -1.5101215568
 H         -9.4849216457       -1.0065740922       -1.2319114044
