121
 energy: -189.672883515046 gnorm: 0.000065320027 xtb: 6.7.1 (edcfbbe)
C           -8.58545568472409       -0.26038131025893        0.61817064471383
C           -7.56298979957987       -0.42635724506642        1.53725769689590
C           -6.63576259632089       -1.43829297611966        1.37408595127831
C           -6.71922646023592       -2.28661154204866        0.27362815301790
N           -5.77007361957331       -3.30219737101346        0.09037203386473
C           -6.04080979357701       -4.62578303635156       -0.19854057709160
C           -7.26115026180208       -5.28078036653963       -0.27690668585297
C           -7.24964650767757       -6.63433143517114       -0.55608392434796
C           -6.05674520670684       -7.32788460933324       -0.74562035756680
C           -4.83815567612121       -6.68568277985226       -0.64620659608097
C           -4.82399155009749       -5.32620531275112       -0.36681473728961
C           -3.77076109918426       -4.36684861646213       -0.17619854596999
C           -2.38914090464786       -4.44570365751851       -0.24432645882538
C           -1.63304154256006       -3.29514800662617       -0.04721273384984
C           -0.16990413784850       -3.32210826217154       -0.12651366447505
C            0.50728783976575       -2.25878357872988       -0.74825658943098
C            1.88058226106542       -2.19092730430836       -0.78891632761894
C            2.60853013233848       -3.19811595693850       -0.16559297866778
C            1.94621570896336       -4.32099582987511        0.39210538978955
C            0.56271690809595       -4.37755685973869        0.41028076989859
C            2.97983986423663       -5.19349510861310        0.87548001168904
C            2.96328391231056       -6.42718272381876        1.50920419124278
C            4.16520787851829       -6.99218740031598        1.89194177303864
C            5.37018051330096       -6.32998600670529        1.66856474071484
C            5.41200788699178       -5.10052706253554        1.03681352274025
C            4.21303390193520       -4.54352474775659        0.61553965706046
N            3.97142739614787       -3.33765337031492       -0.01952997681590
C            4.90139517391960       -2.34609649883046       -0.32039861348375
C            6.16332834834998       -2.62930279466187       -0.89893600774805
C            7.03819972362789       -1.62230453201273       -1.16154333788225
C            6.74313623542989       -0.24369584423648       -0.91567563631808
C            7.66278639374870        0.73629525119230       -1.34579117134512
C            7.37618062598190        2.12547925658171       -1.50587902851706
C            8.34711204816067        2.98678374561441       -1.92571229896968
C            9.63633099745686        2.50619827345862       -2.22012239374618
C            9.83721212217997        1.13966124204785       -2.09105526348026
N            8.91767019708712        0.31111318425019       -1.68142112258047
C            5.47922164498978        0.01316676262875       -0.27798942952085
N            5.06699647297969        1.29369790247681        0.13497859512201
C            5.62930246595256        2.06197756488664        1.13767729035973
C            6.86908674700481        1.93834061590018        1.74450985800695
C            7.19552482431272        2.85283400586976        2.72841572393112
C            6.31107469068738        3.86076870579930        3.10546127888608
C            5.06745485736739        3.97790536410838        2.51372952745930
C            4.71586532433882        3.07303896851729        1.52259111207104
C            3.53490733406007        2.88707008401490        0.72086390121741
C            2.29259184271113        3.49844791072721        0.67333225863692
C            1.33820929600104        3.03669357457687       -0.23038284891954
C           -0.02697245073527        3.57301538453427       -0.23034794854955
C           -0.27596271680515        4.92820317481883        0.03473386601348
C           -1.55357484432308        5.44571077867881        0.08310990897409
C           -2.61900895547195        4.58153368922303       -0.13265744916593
C           -2.38957491661207        3.22125640943977       -0.44184939460239
C           -1.09940910678289        2.72165447096984       -0.48002335465184
C           -3.67960910568336        2.62897021444670       -0.66247251055524
C           -4.09568532109876        1.34871310901552       -1.00112655807487
C           -5.44947589475705        1.10226223178268       -1.11674226160436
C           -6.38134284176770        2.11174705622217       -0.88816866733578
C           -5.99050117688201        3.39664699042357       -0.56203274953340
C           -4.63059810965167        3.65699719350940       -0.47009422034107
N           -3.97559612064062        4.83129505857471       -0.15165305793767
C           -4.58502534008570        6.06686637759287        0.10747512541711
C           -4.24756248921952        6.78648760771263        1.25020880389810
C           -4.84666121661117        8.00730580113605        1.49886944413475
C           -5.79000763128356        8.51464374324038        0.62079079965706
C           -6.13002206994763        7.79754859300849       -0.51436201444798
C           -5.52900114123404        6.58061482158317       -0.77707412812380
C            1.67849687995589        2.01508201091597       -1.13394697075063
C            2.90406895070037        1.39115412511781       -1.10027922712849
C            3.81268369864778        1.79067357300056       -0.12890045622746
C            4.60782785400215       -1.01493887255959       -0.00707551093527
C           -2.28238589763578       -2.08090965346506        0.22968383503346
C           -3.65386220449025       -1.98277471198596        0.31694886622912
C           -4.40195170772700       -3.13404392429505        0.11168607035876
C           -7.74285161571337       -2.11320789533144       -0.65391193345559
C           -8.67366097561172       -1.10684445648138       -0.47450982542386
H           -9.31229582655252        0.52629675994269        0.75423631693493
H           -7.49077617087663        0.23140508459982        2.39041603632208
H           -5.85304274085915       -1.58621278555249        2.10266592808710
H           -8.19016704368179       -4.75558122297661       -0.11332690012357
H           -8.18681750105696       -7.16667998947738       -0.62486817687339
H           -6.09006413294448       -8.38476136130928       -0.96435857009279
H           -3.91312884103624       -7.22638017746632       -0.77806087894336
H           -1.90826303022706       -5.38229662292679       -0.48280484736958
H           -0.07034177896309       -1.48460559694210       -1.23042483512224
H            2.37296961675857       -1.38013480075586       -1.29926266420464
H            0.05784980528946       -5.21341491001203        0.87089142538855
H            2.02746856385873       -6.92948481079008        1.70305188072754
H            4.17356994550853       -7.95317915319097        2.38432662352578
H            6.29196485039751       -6.78326058228805        2.00143220934412
H            6.34997470456892       -4.58723086248403        0.89562674986398
H            6.40633911995733       -3.64663239611894       -1.16525992886686
H            7.99551514999639       -1.83276920424965       -1.61244622350618
H            6.36822557430345        2.47539408623974       -1.35573966979895
H            8.12532404029108        4.03687002071506       -2.05427315358194
H           10.43058564269778        3.16135755899467       -2.53579137620231
H           10.80097299203494        0.69605061865249       -2.31268420558529
H            7.55441444716486        1.15738471314530        1.45391714387907
H            8.15691450496718        2.78450495092508        3.21527204765477
H            6.60401466423755        4.55841567532740        3.87608718377211
H            4.38122388383184        4.75576458741892        2.81373292622996
H            2.05570078756384        4.29797049773778        1.35889108511812
H            0.56207959182589        5.59269939137052        0.18308890530273
H           -1.71541402264955        6.49664439657493        0.27065764431586
H           -0.93425380724745        1.67369083172622       -0.67800717369140
H           -3.37175968372871        0.56654201270405       -1.17254889210409
H           -5.79818301109009        0.11486495534766       -1.38094726471494
H           -7.43317597665141        1.88232969821309       -0.96952525687743
H           -6.72225048531479        4.16874826764202       -0.37770714444498
H           -3.52799220386288        6.37708092242540        1.94344595929432
H           -4.58140407372096        8.56133564228975        2.38711837096636
H           -6.25861048877304        9.46638305122006        0.82035472725981
H           -6.86127821238713        8.19189472925984       -1.20433082510630
H           -5.77404986864973        6.02954475475802       -1.67274585659741
H            0.96187297568580        1.72476042938710       -1.88733997942389
H            3.16342008999551        0.62226524027647       -1.81244915977399
H            3.69197347118442       -0.79135280449456        0.52167693199143
H           -1.68297505448727       -1.19999549422436        0.40711430466756
H           -4.12728757172650       -1.03686290358571        0.53007085295573
H           -7.79350585246980       -2.75914269337043       -1.51797635399180
H           -9.46553186368948       -0.97779794034450       -1.19769452618429
