  55
  -101.375925942500       0.338968797562914      !
 C          6.6050984807        3.2135479458       -0.0674783927
 C          5.1538121067        3.5744304139       -0.0271595934
 C          4.1519607069        2.6227630560       -0.0285444845
 C          2.8014328426        2.9882990761        0.0059760672
 C          1.7770947128        1.9714432467        0.0017391128
 N          2.1526246113        0.6852216052       -0.0116165596
 C          1.2560142693       -0.2651675114       -0.0160935456
 N          1.5447780894       -1.5393797995       -0.0177008719
 C          0.5675612889       -2.4562792070       -0.0166621742
 C          0.9340800527       -3.8523449828       -0.0084686759
 C         -0.0550896755       -4.8409928871       -0.0024054692
 C          0.3050914398       -6.1714395491        0.0106083070
 C          1.6486000106       -6.5053397909        0.0176483401
 F          1.9887110924       -7.8118797718        0.0318744643
 C          2.6649380483       -5.5501020843        0.0120608390
 C          4.0995494899       -5.9742619458        0.0205253541
 C          2.2838645719       -4.2219975003       -0.0017276654
 N         -0.7340022923       -2.1381870321       -0.0173038585
 C         -1.1098945063       -0.8869889929       -0.0157589656
 N         -2.3576875336       -0.4998282472       -0.0112796042
 C         -2.6635914734        0.8046721257        0.0003180833
 C         -4.0556432358        1.1858700551        0.0030679632
 C         -4.4161966887        2.5369888459        0.0281144484
 C         -5.7482518326        2.8911916680        0.0310660987
 C         -6.7099219161        1.8954213370        0.0080138714
 F         -8.0112295008        2.2549174117        0.0108378776
 C         -6.3918217116        0.5376483556       -0.0180233284
 C         -7.4772918825       -0.4914431634       -0.0445827155
 C         -5.0512861469        0.2025422479       -0.0196179775
 N         -1.7368891350        1.7722434955        0.0117109291
 C         -0.4654577098        1.4723520443        0.0039066845
 N          0.4943967130        2.3583983220        0.0134009546
 N         -0.1064535449        0.1068014674       -0.0181565250
 C          2.4504290792        4.3416480481        0.0438787287
 C          3.4355325974        5.3057189113        0.0480525458
 C          4.7625859858        4.9126351701        0.0124306187
 F          5.7184626130        5.8660708570        0.0160835809
 H          7.1186491822        3.6214308136        0.8021171401
 H          7.0738730270        3.6408952991       -0.9530332627
 H          6.7332169707        2.1353321985       -0.0831184511
 H          4.3977507066        1.5724561031       -0.0575236024
 H         -1.0911980652       -4.5431205556       -0.0075714832
 H         -0.4350680196       -6.9563823911        0.0155137731
 H          4.7561915147       -5.1094699861        0.0327701748
 H          4.3045543187       -6.5906602077        0.8948150969
 H          4.3187223577       -6.5755853295       -0.8609592591
 H          3.0286091917       -3.4412495369       -0.0066325111
 H         -3.6396180138        3.2845050995        0.0452849825
 H         -6.0571024457        3.9244640329        0.0507266668
 H         -7.0580497194       -1.4931147905       -0.0392115761
 H         -8.0907560657       -0.3670221693       -0.9361024931
 H         -8.1299266409       -0.3726611035        0.8192614163
 H         -4.7482268988       -0.8329038651       -0.0373322785
 H          1.4066371726        4.6098389981        0.0703360393
 H          3.1958352103        6.3569454219        0.0781759519
  55
  -101.375744970600       0.279892200133617      !
 C          3.0177261163        6.6948239033        0.0190641741
 C          3.4283274498        5.2559633033        0.0113817923
 C          2.5035722254        4.2280515707        0.0228031073
 C          2.9042789444        2.8879358501        0.0014044460
 C          1.9161634531        1.8358743729        0.0113920865
 N          2.3401613412        0.5648329464        0.0046051061
 C          1.4825661783       -0.4202476205        0.0142239347
 N          1.8196520599       -1.6823095106        0.0062380972
 C          0.8797797308       -2.6370391058        0.0066169644
 C          1.3036714050       -4.0167332727        0.0061977381
 C          2.6658686770       -4.3339775312        0.0092530690
 C          3.0627085684       -5.6539342877        0.0079286161
 C          2.0979520302       -6.6469188772        0.0035892853
 F          2.4988219514       -7.9360780002        0.0013161750
 C          0.7303697662       -6.3723940822        0.0010594891
 C         -0.2631702182       -7.4906820093       -0.0027020719
 C          0.3523686342       -5.0432601584        0.0026179927
 N         -0.4331217805       -2.3696832092        0.0021004135
 C         -0.8564509837       -1.1334714768        0.0108229952
 N         -2.1180420479       -0.7944280930       -0.0005999336
 C         -2.4743461261        0.4973566266        0.0073010846
 C         -3.8808512045        0.8216328624       -0.0025303235
 C         -4.8382764033       -0.1974952900       -0.0312844010
 C         -6.1792451920        0.1212471677       -0.0427366584
 C         -6.5547782820        1.4536442247       -0.0241557960
 F         -7.8711493743        1.7534369911       -0.0356673719
 C         -5.6317060240        2.4988755772        0.0054760025
 C         -6.1010677403        3.9192041042        0.0263582999
 C         -4.2923273454        2.1592533584        0.0151948132
 N         -1.5865906789        1.5010391977        0.0181109755
 C         -0.3043831369        1.2499593653        0.0245677997
 N          0.6195394652        2.1738237284        0.0200612693
 N          0.1070868913       -0.1016228744        0.0367878921
 C          4.2669785654        2.5727746744       -0.0299620051
 C          5.2037959818        3.5830111953       -0.0422897677
 C          4.7759378873        4.9002830489       -0.0237996542
 F          5.7072107628        5.8778956531       -0.0355021550
 H          2.0141228959        6.8050169278        0.4204838653
 H          3.0286776488        7.0894125266       -0.9974534450
 H          3.7114525540        7.2873536424        0.6115999386
 H          1.4472898527        4.4471074212        0.0496090897
 H          3.3882844413       -3.5338111524        0.0123430446
 H          4.1055825220       -5.9293897145        0.0098419865
 H         -1.2777099193       -7.1040282904       -0.0234024142
 H         -0.1066183722       -8.1297326993       -0.8709089532
 H         -0.1356543284       -8.1097471236        0.8847200064
 H         -0.6924350366       -4.7733726895        0.0008551675
 H         -4.5082194003       -1.2236518093       -0.0447410694
 H         -6.9404181459       -0.6426582716       -0.0657225839
 H         -5.2576434340        4.6031710007        0.0333006668
 H         -6.7133008583        4.0993945059        0.9093278065
 H         -6.7198054300        4.1237716489       -0.8464899190
 H         -3.5351528956        2.9278325514        0.0373439078
 H          4.5628635877        1.5362594426       -0.0440185325
 H          6.2611941382        3.3712893548       -0.0661089530
  55
  -101.374930987100       0.118279608941284      !
 C          6.4558866087        3.6033853838       -0.0271499034
 C          4.9816194679        3.8570882622       -0.0114145330
 C          4.0552182442        2.8314116035        0.0011458454
 C          2.6806342741        3.0924650348        0.0041379786
 C          1.7369836936        2.0004126707        0.0146089795
 N          2.2088989719        0.7463334865        0.0171880681
 C          1.3880549852       -0.2700982880        0.0234338581
 N          1.7719805654       -1.5188289869        0.0189675919
 C          0.8675909466       -2.5074009553        0.0170665744
 C          1.3388099413       -3.8716435710        0.0101235864
 C          2.7106193057       -4.1445164301        0.0137200120
 C          3.1495858566       -5.4509695940        0.0047758672
 C          2.2176988537       -6.4751082323       -0.0072103926
 F          2.6617575935       -7.7501101984       -0.0173235659
 C          0.8421931177       -6.2450889935       -0.0124030873
 C         -0.1181061459       -7.3923514390       -0.0182336120
 C          0.4217535116       -4.9286070582       -0.0030993389
 N         -0.4545534414       -2.2887902914        0.0165823837
 C         -0.9239477363       -1.0696916214        0.0222792092
 N         -2.1975870027       -0.7780874282        0.0162623199
 C         -2.6011822529        0.4994008564        0.0151779886
 C         -4.0180378102        0.7746489687        0.0061320436
 C         -4.9416951710       -0.2756179734       -0.0034520730
 C         -6.2919993946       -0.0001715886       -0.0167514073
 C         -6.7111944206        1.3197090711       -0.0187283001
 F         -8.0371784526        1.5737443401       -0.0341346718
 C         -5.8227065901        2.3945272782       -0.0094713849
 C         -6.3314961749        3.8014776640       -0.0013964843
 C         -4.4728405273        2.0979074879        0.0030341943
 N         -1.7508849256        1.5349480115        0.0166221978
 C         -0.4603660528        1.3317739154        0.0221817914
 N          0.4285326835        2.2890511702        0.0156128654
 N          0.0011265492       -0.0026696792        0.0353202310
 C          2.2265990257        4.4154073677       -0.0044158127
 C          3.1348535267        5.4518315127       -0.0165762658
 C          4.4887455522        5.1614563228       -0.0212951242
 F          5.3670327239        6.1868453542       -0.0327857281
 H          6.6695080866        2.5659031430        0.2110656898
 H          6.9607012482        4.2496645314        0.6881529334
 H          6.8613847696        3.8265225534       -1.0136767573
 H          4.3814425999        1.8029830103        0.0098759179
 H          3.4069004329       -3.3215719498        0.0226974353
 H          4.2007773029       -5.6928793869        0.0065308891
 H          0.1640853718       -8.1195001895       -0.7776113393
 H         -0.0979946133       -7.9006974266        0.9455301044
 H         -1.1292410634       -7.0460021918       -0.2102363697
 H         -0.6312877623       -4.6930637726       -0.0076505805
 H         -4.5787604328       -1.2906960967       -0.0020643869
 H         -7.0284126274       -0.7883308706       -0.0265029591
 H         -5.5345618552        4.4992495837       -0.2400162091
 H         -6.7284973245        4.0482747435        0.9829335977
 H         -7.1404307946        3.9178399765       -0.7198723722
 H         -3.7413073436        2.8909407351        0.0090129284
 H          1.1650779165        4.6030846040       -0.0008066143
 H          2.8152919828        6.4819812456       -0.0228945841
  55
  -101.374896785900       0.114075425334753      !
 C          6.4590777555        3.5918812454       -0.0034626961
 C          4.9851011680        3.8475762646       -0.0039373388
 C          4.0548934836        2.8258909917       -0.0101467816
 C          2.6809561641        3.0927205135       -0.0089333801
 C          1.7345308792        2.0030904125       -0.0134035931
 N          2.2056816963        0.7486278208       -0.0167438417
 C          1.3843268525       -0.2671524906       -0.0219315978
 N          1.7682130848       -1.5158701984       -0.0151281016
 C          0.8638961702       -2.5043404209       -0.0095199812
 C          1.3373033768       -3.8678720917       -0.0032140502
 C          2.7098837394       -4.1365955775       -0.0086375053
 C          3.1532209472       -5.4416479179       -0.0009667932
 C          2.2243222837       -6.4682214493        0.0123477267
 F          2.6708934242       -7.7423000699        0.0203727744
 C          0.8479607962       -6.2423611602        0.0174481012
 C         -0.1057193310       -7.3948423647        0.0339342697
 C          0.4231188157       -4.9274828075        0.0094440429
 N         -0.4580160078       -2.2856968105       -0.0034308443
 C         -0.9270819434       -1.0662206896       -0.0113825122
 N         -2.2004674879       -0.7744496049        0.0007879352
 C         -2.6042513117        0.5031730660       -0.0000443267
 C         -4.0215066652        0.7764871057        0.0047311377
 C         -4.9423602077       -0.2761154227        0.0061571205
 C         -6.2937678905       -0.0048957309        0.0080904456
 C         -6.7160132104        1.3136744281        0.0084997193
 F         -8.0421157365        1.5665833045        0.0092335992
 C         -5.8302728745        2.3910855037        0.0075320725
 C         -6.3489896338        3.7942615675        0.0075767606
 C         -4.4797765837        2.0989715942        0.0059882378
 N         -1.7538276125        1.5386210112       -0.0016695687
 C         -0.4633308671        1.3355300325       -0.0138549601
 N          0.4262123289        2.2923067831       -0.0080819377
 N         -0.0022250119        0.0005243052       -0.0370422118
 C          2.2321829235        4.4173626507       -0.0021454578
 C          3.1447800351        5.4503495146        0.0044953773
 C          4.4972756475        5.1542628812        0.0039590476
 F          5.3811892903        6.1747385432        0.0112048517
 H          6.9121622534        4.0083578090        0.8954379608
 H          6.9257968540        4.0781413194       -0.8590551194
 H          6.6645984242        2.5263400172       -0.0431438428
 H          4.3765065623        1.7959315634       -0.0163524265
 H          3.4034579577       -3.3113193925       -0.0184208868
 H          4.2051471064       -5.6801199210       -0.0045025645
 H          0.0833266349       -8.0523679570       -0.8135018997
 H          0.0325502770       -7.9832486518        0.9403310354
 H         -1.1328298403       -7.0449420199       -0.0081099710
 H         -0.6305704524       -4.6950825901        0.0117769662
 H         -4.5763545453       -1.2901033766        0.0059014318
 H         -7.0278152614       -0.7952600696        0.0086984695
 H         -5.5299274809        4.5070779445        0.0047521893
 H         -6.9683558487        3.9662695569        0.8869118904
 H         -6.9729491488        3.9643344671       -0.8689067690
 H         -3.7498891316        2.8939178387        0.0062293311
 H          1.1713413664        4.6093343818       -0.0004952857
 H          2.8293037274        6.4817564042        0.0111877501
  55
  -101.374464822200       7.222296689122096E-002 !
 C          3.0107981367        6.6998643422        0.0122062189
 C          3.4211592347        5.2611801780       -0.0000479167
 C          2.5018501243        4.2292713464       -0.0012159435
 C          2.9101092759        2.8907448697       -0.0063074224
 C          1.9250129944        1.8357960000       -0.0081085047
 N          2.3494494126        0.5649836228       -0.0139118758
 C          1.4919734659       -0.4204379240       -0.0135838372
 N          1.8286069397       -1.6829213302       -0.0162439020
 C          0.8881787072       -2.6366531813       -0.0104202487
 C          1.3055315650       -4.0187799500       -0.0051767162
 C          2.6657152591       -4.3473154979       -0.0269095717
 C          3.0490893455       -5.6699147884       -0.0199154538
 C          2.0768298495       -6.6580398209        0.0107784532
 F          2.4807890110       -7.9466080799        0.0182001335
 C          0.7138498613       -6.3724020110        0.0331743123
 C         -0.3172098658       -7.4576750975        0.0726606928
 C          0.3487668736       -5.0370689832        0.0235048055
 N         -0.4248067844       -2.3691495133       -0.0070595348
 C         -0.8475223305       -1.1330513671       -0.0082428499
 N         -2.1093258160       -0.7948517883       -0.0085290644
 C         -2.4659333690        0.4967215253       -0.0060287830
 C         -3.8728611246        0.8187418245       -0.0057135783
 C         -4.8279277426       -0.2029898336       -0.0220806437
 C         -6.1697124158        0.1121599845       -0.0215487110
 C         -6.5481736500        1.4437638980       -0.0034257981
 F         -7.8655656453        1.7401161003       -0.0025027455
 C         -5.6276779836        2.4914452706        0.0134432238
 C         -6.1002615284        3.9106415673        0.0358141581
 C         -4.2872762541        2.1553159483        0.0112468413
 N         -1.5783383482        1.5004525657       -0.0029464319
 C         -0.2958373138        1.2495754655       -0.0050534834
 N          0.6279936056        2.1731991662       -0.0043090387
 N          0.1160375418       -0.1012002101       -0.0082232185
 C          4.2743599393        2.5821857652       -0.0114639126
 C          5.2064692450        3.5974502267       -0.0101839879
 C          4.7713493666        4.9120891263       -0.0035093238
 F          5.6952779732        5.8965194096       -0.0029756340
 H          3.2437984099        7.1468790781        0.9784232024
 H          1.9445455286        6.7965263254       -0.1703663495
 H          3.5583824422        7.2562423975       -0.7465734431
 H          1.4440221046        4.4422092436        0.0016987491
 H          3.3950298256       -3.5537716465       -0.0494945531
 H          4.0890643901       -5.9556820017       -0.0372013608
 H         -0.8618435875       -7.4205603260        1.0152070556
 H         -1.0353554624       -7.3237407012       -0.7341101264
 H          0.1444669435       -8.4363971985       -0.0236359226
 H         -0.6946899458       -4.7620386896        0.0390481588
 H         -4.4952376462       -1.2283055531       -0.0354575906
 H         -6.9290545400       -0.6537751035       -0.0345808374
 H         -6.6803802227        4.0984878625        0.9386307779
 H         -6.7507643644        4.1045107043       -0.8159589853
 H         -5.2590623951        4.5966765027        0.0058111869
 H         -3.5320012330        2.9258949974        0.0231594591
 H          4.5757414762        1.5473038487       -0.0148578353
 H          6.2652116778        3.3914506518       -0.0134529915
  55
  -101.374111098300       4.967239220962631E-002 !
 C          6.4608251924        3.5878600885       -0.0037002668
 C          4.9869395803        3.8455499376        0.0017448915
 C          4.0561471390        2.8241415065        0.0126960355
 C          2.6822693254        3.0914222814        0.0059235671
 C          1.7348492541        2.0024310449        0.0095247479
 N          2.2047661813        0.7477624989        0.0175478738
 C          1.3822383558       -0.2673184215        0.0106749490
 N          1.7654867128       -1.5160907497        0.0168360106
 C          0.8597082092       -2.5037853149        0.0082010757
 C          1.3339384498       -3.8672284513        0.0076779002
 C          2.7071855402       -4.1330289140        0.0073653256
 C          3.1536541953       -5.4369051506        0.0035981219
 C          2.2269909289       -6.4655785677        0.0006787010
 F          2.6764818177       -7.7386768112       -0.0036120859
 C          0.8501929330       -6.2428622434        0.0021261674
 C         -0.1001211062       -7.3982781230       -0.0002675105
 C          0.4220937347       -4.9288437291        0.0055366493
 N         -0.4617898543       -2.2842095990        0.0003644440
 C         -0.9299914973       -1.0641020350       -0.0040581482
 N         -2.2028436473       -0.7705797260       -0.0061938746
 C         -2.6058324678        0.5074838118       -0.0070400967
 C         -4.0233671346        0.7800537597       -0.0056736967
 C         -4.9427552768       -0.2755085050       -0.0020289266
 C         -6.2928627386       -0.0063797651        0.0030979476
 C         -6.7214033622        1.3123452190        0.0046152282
 F         -8.0512821908        1.5476017624        0.0103859051
 C         -5.8395523964        2.3902419042        0.0007083090
 C         -6.3285715111        3.8057554926        0.0038218166
 C         -4.4859301259        2.0989018945       -0.0049221204
 N         -1.7542961918        1.5420432573       -0.0053798152
 C         -0.4638892822        1.3373776681       -0.0030801347
 N          0.4268074996        2.2931566290        0.0022829770
 N         -0.0038262252        0.0017947775       -0.0075950840
 C          2.2338398691        4.4161571928       -0.0087807149
 C          3.1467895795        5.4486661344       -0.0190809202
 C          4.4993637880        5.1521372961       -0.0156303172
 F          5.3829970037        6.1729843278       -0.0274234836
 H          6.6675710431        2.5364959430        0.1758572323
 H          6.9543442936        4.1887365584        0.7597359459
 H          6.8853173243        3.8710513001       -0.9680578645
 H          4.3773175709        1.7939871294        0.0272332710
 H          3.3986126797       -3.3059714611        0.0096063835
 H          4.2061556041       -5.6729121164        0.0026370336
 H          0.0678851509       -8.0248223415        0.8748588836
 H         -1.1288566559       -7.0507446787        0.0033364920
 H          0.0639356631       -8.0179908028       -0.8810096637
 H         -0.6322841686       -4.6993236615        0.0060679852
 H         -4.5739817448       -1.2884671000       -0.0025298990
 H         -7.0261021474       -0.7975203198        0.0066005141
 H         -5.9531468373        4.3297912344        0.8812459264
 H         -7.4143594574        3.8417341906        0.0120040573
 H         -5.9665261318        4.3295953638       -0.8792715899
 H         -3.7611915977        2.8985242665       -0.0082544114
 H          1.1731061723        4.6082002591       -0.0121908805
 H          2.8320218280        6.4802083549       -0.0304648782
  55
  -101.373531104400       2.688860892658483E-002 !
 C          6.4595395949        3.5817580825       -0.0018819478
 C          4.9886883322        3.8608449676       -0.0103585253
 C          4.0590475854        2.8354926191       -0.0126890443
 C          2.6856353706        3.0960496724       -0.0066064355
 C          1.7409769078        2.0043980251       -0.0081194679
 N          2.2126930426        0.7502910588       -0.0068521674
 C          1.3912667307       -0.2657554966       -0.0095137045
 N          1.7747890463       -1.5147191408       -0.0023580802
 C          0.8698038772       -2.5027408085       -0.0002067652
 C          1.3382185662       -3.8679336782        0.0034226870
 C          2.7090100669       -4.1450343378        0.0026165332
 C          3.1438017195       -5.4530859647        0.0053414708
 C          2.2085848183       -6.4739980185        0.0088709808
 F          2.6472012342       -7.7508604448        0.0113677138
 C          0.8336518149       -6.2396076092        0.0099741008
 C         -0.1281941831       -7.3853902246        0.0138261456
 C          0.4175399343       -4.9220933758        0.0072274275
 N         -0.4520386874       -2.2832377855        0.0014433924
 C         -0.9207467736       -1.0639343341       -0.0057463078
 N         -2.1939896319       -0.7721141621        0.0001073498
 C         -2.5980501853        0.5053927523       -0.0027607998
 C         -4.0157562973        0.7760431010        0.0004663809
 C         -4.9332240919       -0.2796774995        0.0062284741
 C         -6.2854743936       -0.0132134628        0.0096787795
 C         -6.7119898189        1.3039880742        0.0071245262
 F         -8.0390001441        1.5525067001        0.0105664577
 C         -5.8298753083        2.3842835513        0.0012944459
 C         -6.3537071376        3.7855916959       -0.0019490827
 C         -4.4782616880        2.0968655592       -0.0017660883
 N         -1.7476760683        1.5408228211       -0.0049297604
 C         -0.4570808134        1.3372959150       -0.0104960518
 N          0.4327624820        2.2938287030       -0.0069566768
 N          0.0045699366        0.0026038654       -0.0223502499
 C          2.2324392410        4.4201295530       -0.0000432202
 C          3.1417812193        5.4543644968        0.0023286848
 C          4.4973456533        5.1644026056       -0.0008602688
 F          5.3692966861        6.1956471365        0.0012754945
 H          6.6934942674        2.7587795392       -0.6703546147
 H          6.7784062609        3.3016181140        1.0003421747
 H          7.0231621756        4.4590239365       -0.3041261432
 H          4.3873094161        1.8075070045       -0.0196123414
 H          3.4079724960       -3.3243074288        0.0007221669
 H          4.1942034615       -5.6983415570        0.0052802334
 H          0.0321063726       -8.0080943025        0.8929536144
 H         -1.1531818765       -7.0270344610        0.0142050957
 H          0.0300362172       -8.0121345490       -0.8627849260
 H         -0.6346625744       -4.6828552316        0.0082980462
 H         -4.5635378418       -1.2922945037        0.0072860808
 H         -7.0166853079       -0.8060753739        0.0136800613
 H         -6.9862466324        3.9529555322        0.8685459691
 H         -6.9654167785        3.9558198829       -0.8867143491
 H         -5.5377813488        4.5016590734        0.0085112393
 H         -3.7514139850        2.8943677385       -0.0068352466
 H          1.1710804345        4.6088124989        0.0036608037
 H          2.8237443730        6.4850693085        0.0072919110
