  55
       -101.70090660
 C          5.1375940176        5.3128534712        0.0049017004
 C          3.6528861819        5.1294738398        0.0035970546
 C          3.0594774073        3.8816882054       -0.0043229795
 C          1.6672631366        3.7380134709       -0.0038546711
 C          1.0780667763        2.4204995205       -0.0101155908
 N          1.8932209095        1.3569317941       -0.0143669680
 C          1.4022584117        0.1464072164       -0.0211791542
 N          2.1322362798       -0.9370175016       -0.0153453564
 C          1.5539516014       -2.1455145610       -0.0113954316
 C          2.4029355392       -3.3128067634       -0.0061083874
 C          3.7944031018       -3.1713334961       -0.0107896463
 C          4.5976294878       -4.2914008914       -0.0041013232
 C          4.0068848297       -5.5435068808        0.0074986515
 F          4.8042105769       -6.6329967145        0.0145747654
 C          2.6242470956       -5.7270937205        0.0118110442
 C          2.0463524147       -7.1068814914        0.0264380922
 C          1.8358654133       -4.5922522318        0.0048128655
 N          0.2255119270       -2.3201956758       -0.0060613808
 C         -0.5774821130       -1.2894878514       -0.0131354716
 N         -1.8807259330       -1.3801077300       -0.0016109860
 C         -2.6381405928       -0.2748092325       -0.0014592248
 C         -4.0736906359       -0.4248630241        0.0025457179
 C         -4.6491729177       -1.6995258858        0.0022369837
 C         -6.0211037662       -1.8324577056        0.0034462263
 C         -6.8080763150       -0.6933393050        0.0048669907
 F         -8.1504744719       -0.8364425418        0.0048770735
 C         -6.2733987659        0.5948651961        0.0056330646
 C         -7.1772552497        1.7869274664        0.0067030054
 C         -4.8962723209        0.7075381627        0.0047916800
 N         -2.1250708739        0.9629851845       -0.0014188742
 C         -0.8312068072        1.1434324939       -0.0128567301
 N         -0.2578597762        2.3172982306       -0.0054682047
 N         -0.0022660458       -0.0001009661       -0.0370432972
 C          0.8531399557        4.8752307387        0.0039312736
 C          1.4264148658        6.1287161229        0.0122810558
 C          2.8066077647        6.2381670190        0.0124446638
 F          3.3560685086        7.4713497760        0.0213657204
 H          5.4498309439        5.8419050190        0.9045534346
 H          5.4433385749        5.9147003751       -0.8498582316
 H          5.6437165618        4.3529664064       -0.0356968311
 H          3.6663419294        2.9895243566       -0.0113247660
 H          4.2184223320       -2.1801937080       -0.0192338830
 H          5.6734761564       -4.2141028293       -0.0071009153
 H          2.4185532546       -7.6801736471       -0.8215176743
 H          2.3491662143       -7.6308381190        0.9323458111
 H          0.9619109698       -7.0702933587       -0.0160122194
 H          0.7600954213       -4.6758710078        0.0066022200
 H         -4.0044697466       -2.5635216011        0.0012338937
 H         -6.4939867762       -2.8019332506        0.0027203009
 H         -6.6004998311        2.7068888219        0.0051972587
 H         -7.8202450828        1.7706207373        0.8857534546
 H         -7.8233514921        1.7694964370       -0.8700691714
 H         -4.4287009263        1.6801890703        0.0063682520
 H         -0.2177329963        4.7508495774        0.0049920490
 H          0.8250020777        7.0240466492        0.0197755454
  55
       -101.70088091
 C          5.3872195531        4.9933063678       -0.0593858404
 C          3.8936597566        4.9171223612       -0.0197748302
 C          3.2113590945        3.7155254082       -0.0228528875
 C          1.8128663338        3.6730623264        0.0110388196
 C          1.1279805703        2.4025594025        0.0050267311
 N          1.8608620721        1.2808440100       -0.0093424063
 C          1.2788969078        0.1110367329       -0.0154336979
 N          1.9252592432       -1.0243982809       -0.0181064085
 C          1.2564335578       -2.1855744597       -0.0187078422
 C          2.0125830971       -3.4150421387       -0.0116446593
 C          1.3531539618       -4.6483517318       -0.0073023741
 C          2.0841806056       -5.8168745116        0.0046422379
 C          3.4667520614       -5.7462263427        0.0123376451
 F          4.1716304202       -6.8977027011        0.0255037922
 C          4.1618810484       -4.5369976879        0.0084575757
 C          5.6578406939       -4.5262637621        0.0175540731
 C          3.4115429337       -3.3767824563       -0.0042795136
 N         -0.0814124754       -2.2591757319       -0.0199898448
 C         -0.8044646148       -1.1710658501       -0.0174668792
 N         -2.1109177331       -1.1629658530       -0.0135189175
 C         -2.7824815637       -0.0035374731       -0.0008381040
 C         -4.2252438529       -0.0430352346        0.0012680590
 C         -4.9626459200        1.1451159352        0.0274041420
 C         -6.3401577541        1.0972097890        0.0297292198
 C         -6.9711919386       -0.1348949578        0.0049692194
 F         -8.3208185125       -0.1688064784        0.0071946281
 C         -6.2724806429       -1.3417411559       -0.0221955460
 C         -7.0123012111       -2.6416794920       -0.0505873864
 C         -4.8924002946       -1.2731001316       -0.0231382155
 N         -2.1767140392        1.1914423887        0.0122084602
 C         -0.8729837002        1.2737192532        0.0050405876
 N         -0.2118164484        2.4003174616        0.0161312319
 N         -0.1328742637        0.0713048489       -0.0181278415
 C          1.0839494006        4.8661057787        0.0500403455
 C          1.7466207275        6.0747046706        0.0559074240
 C          3.1306512687        6.0839913880        0.0208694039
 F          3.7684440784        7.2739263328        0.0261834153
 H          5.7598245611        5.5317288918        0.8109967428
 H          5.7120521694        5.5394116633       -0.9441657797
 H          5.8229466016        3.9987845575       -0.0760130719
 H          3.7515868587        2.7818980433       -0.0527044324
 H          0.2751965628       -4.6642056675       -0.0129333127
 H          1.6038726916       -6.7829422626        0.0082146846
 H          6.0350345550       -3.5080625305        0.0311504386
 H          6.0326560103       -5.0575878014        0.8913759058
 H          6.0425625053       -5.0369868287       -0.8643715236
 H          3.8974566298       -2.4133972246       -0.0078521682
 H         -4.4366284861        2.0859206381        0.0458969790
 H         -6.9357775188        1.9962343257        0.0501986501
 H         -6.3202350030       -3.4784359642       -0.0459120553
 H         -7.6350904898       -2.6997293380       -0.9424338594
 H         -7.6716620881       -2.7185615027        0.8128941595
 H         -4.3016918311       -2.1758888786       -0.0416678297
 H          0.0072462756        4.8195811840        0.0759972680
 H          1.2119554778        7.0109799651        0.0869086697
  55
       -101.70082629
 C          5.1303248179        5.3237897773       -0.0249983376
 C          3.6459521760        5.1381655758       -0.0089399873
 C          3.0575494271        3.8875533339        0.0029269414
 C          1.6664194617        3.7379358584        0.0062387549
 C          1.0807973694        2.4188010890        0.0159676341
 N          1.8967438562        1.3559492230        0.0175561816
 C          1.4066559496        0.1448586176        0.0231061309
 N          2.1368527972       -0.9384373131        0.0176611948
 C          1.5587262502       -2.1471398540        0.0150928405
 C          2.4060131882       -3.3155978276        0.0070760489
 C          3.7979245737       -3.1781006326        0.0103440989
 C          4.5975584085       -4.3006325038        0.0003727305
 C          4.0034521850       -5.5513499256       -0.0123053207
 F          4.7988195458       -6.6423071322       -0.0234223805
 C          2.6204551665       -5.7309247458       -0.0172017250
 C          2.0349398205       -7.1077137051       -0.0238146469
 C          1.8356350407       -4.5934137672       -0.0068648147
 N          0.2301046851       -2.3221293848        0.0148915649
 C         -0.5732629621       -1.2920220681        0.0215522458
 N         -1.8766831682       -1.3830696291        0.0158691723
 C         -2.6340586736       -0.2779682962        0.0157870135
 C         -4.0697645743       -0.4262777518        0.0070752477
 C         -4.6484035277       -1.6996066060       -0.0032211562
 C         -6.0204883384       -1.8283859015       -0.0161920776
 C         -6.8051085692       -0.6872533320       -0.0171333451
 F         -8.1477018046       -0.8294519006       -0.0322296610
 C         -6.2672555970        0.5993487261       -0.0071424450
 C         -7.1629011764        1.7977543658        0.0020419034
 C         -4.8894380420        0.7077413811        0.0050187450
 N         -2.1213400905        0.9599656944        0.0179389012
 C         -0.8274633412        1.1405329803        0.0232300664
 N         -0.2550687728        2.3147958224        0.0173061859
 N          0.0018644267       -0.0022518114        0.0353181013
 C          0.8475705597        4.8718792541       -0.0012739956
 C          1.4154868030        6.1275022052       -0.0127312562
 C          2.7953369107        6.2430518622       -0.0177901334
 F          3.3377853735        7.4794078910       -0.0285832274
 H          5.6362579331        4.3929742569        0.2124134453
 H          5.4257915963        6.0883673811        0.6907482486
 H          5.4531913671        5.6558117143       -1.0113921804
 H          3.6685265739        2.9982794361        0.0108501063
 H          4.2250490510       -2.1883535297        0.0198820811
 H          5.6736875003       -4.2266671310        0.0018513055
 H          2.5160084795       -7.7209647680       -0.7837672572
 H          2.2021848260       -7.5889560723        0.9395624911
 H          0.9667346207       -7.0699738616       -0.2154654666
 H          0.7595849609       -4.6740065080       -0.0111442597
 H         -4.0061812688       -2.5654341703       -0.0026335415
 H         -6.4961210187       -2.7965090472       -0.0264743083
 H         -6.6031709203        2.6971485465       -0.2361208202
 H         -7.6141842569        1.9178618624        0.9865936756
 H         -7.9709643779        1.6745497688       -0.7162738336
 H         -4.4198922147        1.6791128679        0.0115322797
 H         -0.2226828268        4.7430160046        0.0025715454
 H          0.8103856360        7.0203572794       -0.0182419581
  55
       -101.70080254
 C          0.9443154583        7.2825446361        0.0226581169
 C          1.7549198130        6.0248481459        0.0130446454
 C          1.1684023629        4.7727406791        0.0244189029
 C          1.9408544994        3.6066735369        0.0012016917
 C          1.3007139778        2.3130639587        0.0111867164
 N          2.0754219426        1.2198481164        0.0026268319
 C          1.5407362263        0.0282249228        0.0121692487
 N          2.2296666307       -1.0816275763        0.0025148337
 C          1.6074237347       -2.2680854716        0.0029385655
 C          2.4135800885       -3.4653101566        0.0006346396
 C          3.8092144837       -3.3734528560        0.0018730601
 C          4.5721412629       -4.5213650914       -0.0012449730
 C          3.9371846958       -5.7516512425       -0.0055516119
 F          4.6950262479       -6.8689215636       -0.0095909905
 C          2.5487992061       -5.8859519486       -0.0063026053
 C          1.9226745635       -7.2445015532       -0.0101290410
 C          1.8012361327       -4.7237890677       -0.0029616786
 N          0.2734426517       -2.3933713667        0.0001336184
 C         -0.4905118976       -1.3332925000        0.0105924984
 N         -1.7962120570       -1.3750781468        0.0008988833
 C         -2.5121615781       -0.2423617220        0.0105201152
 C         -3.9522461804       -0.3403477686        0.0025613379
 C         -4.5726306107       -1.5935070693       -0.0261949662
 C         -5.9483969292       -1.6777625126       -0.0358519835
 C         -6.6945226100       -0.5117719267       -0.0154880562
 F         -8.0412495683       -0.6070203389       -0.0252508172
 C         -6.1145882177        0.7563933298        0.0142104325
 C         -6.9760249430        1.9792890203        0.0370689986
 C         -4.7342845539        0.8202077245        0.0221142398
 N         -1.9539869962        0.9758042016        0.0213925599
 C         -0.6541003413        1.1077535880        0.0261881188
 N         -0.0381658131        2.2600480191        0.0216223876
 N          0.1320255224       -0.0661841832        0.0365660392
 C          3.3363185742        3.7006930396       -0.0319800351
 C          3.9395085933        4.9393886788       -0.0442921387
 C          3.1477018991        6.0757156722       -0.0239772975
 F          3.7550575827        7.2815823183       -0.0356916749
 H         -0.0475168973        7.0963811022        0.4252887320
 H          0.8388798129        7.6639990679       -0.9934639372
 H          1.4369556394        8.0505488206        0.6150445776
 H          0.0940528241        4.6757095795        0.0526059811
 H          4.2682391326       -2.3980314436        0.0049968635
 H          5.6500710276       -4.4822164057       -0.0007561503
 H          0.8395531570       -7.1690026517       -0.0293212843
 H          2.2568300795       -7.8100058664       -0.8791643778
 H          2.2256055572       -7.8004827700        0.8765149476
 H          0.7230763109       -4.7688262266       -0.0033035799
 H         -3.9589161480       -2.4796499552       -0.0410695511
 H         -6.4550629091       -2.6297223230       -0.0587919700
 H         -6.3674654376        2.8786407795        0.0437931352
 H         -7.6130130606        1.9734004420        0.9208928407
 H         -7.6286771221        1.9960124575       -0.8348906806
 H         -4.2328027846        1.7754798246        0.0442265842
 H          3.9203389260        2.7947178996       -0.0474277648
 H          5.0128008513        5.0437598725       -0.0694860903
  55
       -101.70069274
 C          5.1404898922        5.3037709766        0.0048349959
 C          3.6519948507        5.1435551896       -0.0040076201
 C          3.0603056451        3.8923661818       -0.0078467237
 C          1.6704287627        3.7427086283       -0.0021059577
 C          1.0836290896        2.4237159216       -0.0052048049
 N          1.8993166617        1.3607221474       -0.0050578629
 C          1.4084719904        0.1498739006       -0.0091693405
 N          2.1382741752       -0.9338250950       -0.0031683461
 C          1.5593323139       -2.1421360816       -0.0024748352
 C          2.4041306061       -3.3123869952       -0.0000852939
 C          3.7963050068       -3.1793269764       -0.0005683719
 C          4.5923309932       -4.3046671700        0.0009622377
 C          3.9940154915       -5.5532339478        0.0029853660
 F          4.7846409716       -6.6476186203        0.0043226426
 C          2.6102853348       -5.7283657874        0.0037181512
 C          2.0227635306       -7.1041541611        0.0059191032
 C          1.8293847210       -4.5885446281        0.0021842787
 N          0.2307277929       -2.3160913454       -0.0011869165
 C         -0.5719704204       -1.2855195739       -0.0072918886
 N         -1.8750794531       -1.3761631242       -0.0017017176
 C         -2.6328264339       -0.2711229792       -0.0033941571
 C         -4.0680188027       -0.4239864434       -0.0005180457
 C         -4.6392391170       -1.7007071762        0.0037086660
 C         -6.0105823095       -1.8385620028        0.0068329425
 C         -6.8013470119       -0.7020624675        0.0054864704
 F         -8.1433255938       -0.8497566863        0.0085946717
 C         -6.2710943176        0.5879034393        0.0012019625
 C         -7.1794113552        1.7766132527       -0.0007882388
 C         -4.8942733440        0.7055225401       -0.0015551000
 N         -2.1199125574        0.9666876510       -0.0040795312
 C         -0.8258483665        1.1468573346       -0.0092806793
 N         -0.2522486827        2.3206321955       -0.0043237926
 N          0.0036191832        0.0038447795       -0.0223454087
 C          0.8521346833        4.8780287693        0.0056603227
 C          1.4218201153        6.1318205489        0.0095411077
 C          2.8031605376        6.2481532995        0.0066547022
 F          3.3379362050        7.4882219650        0.0102793217
 H          5.6035098099        4.5850133244       -0.6644064934
 H          5.5268628466        5.1271911153        1.0069043732
 H          5.4250009976        6.3072823315       -0.2962227017
 H          3.6730387424        3.0040788228       -0.0157146798
 H          4.2267071894       -2.1909453769       -0.0012755562
 H          5.6686811467       -4.2342082938        0.0011135760
 H          2.3569371695       -7.6544467736        0.8844563891
 H          0.9378762099       -7.0590079404        0.0062171312
 H          2.3563447926       -7.6568988237       -0.8712862081
 H          0.7530593822       -4.6652857272        0.0030351143
 H         -3.9913334935       -2.5622642087        0.0038566052
 H         -6.4799372401       -2.8096507559        0.0096621272
 H         -7.8333983623        1.7520099874        0.8695991320
 H         -7.8140840908        1.7628165964       -0.8856475880
 H         -6.6066880087        2.6988119649        0.0108007190
 H         -4.4304413173        1.6797851807       -0.0054491946
 H         -0.2182663033        4.7502497501        0.0090867059
 H          0.8180813823        7.0256824110        0.0154564909
  55
       -101.70060267
 C          5.1404392821        5.3095102248        0.0010164876
 C          3.6552388257        5.1280612916        0.0063451589
 C          3.0611863280        3.8803534564        0.0161669368
 C          1.6688979287        3.7371364133        0.0093100316
 C          1.0785607370        2.4199363994        0.0117176856
 N          1.8925916305        1.3558010951        0.0187325227
 C          1.4002996928        0.1456053904        0.0107613145
 N          2.1296848055       -0.9380553273        0.0158989852
 C          1.5497767743       -2.1462199884        0.0061706284
 C          2.3995238055       -3.3131814769        0.0045431963
 C          3.7907785277       -3.1687245581        0.0043162331
 C          4.5966616036       -4.2867455243       -0.0005086370
 C          4.0086696618       -5.5401933175       -0.0045629257
 F          4.8085065298       -6.6278845819       -0.0098832268
 C          2.6265290833       -5.7269098132       -0.0032403197
 C          2.0527126859       -7.1085066424       -0.0068874267
 C          1.8352783840       -4.5938487126        0.0012411871
 N          0.2214646039       -2.3198736502       -0.0017806689
 C         -0.5808880219       -1.2883150220       -0.0052253859
 N         -1.8841252601       -1.3770870997       -0.0073984208
 C         -2.6409062992       -0.2711352330       -0.0071997752
 C         -4.0765058094       -0.4219768461       -0.0059233554
 C         -4.6497272040       -1.6990479402       -0.0034357212
 C         -6.0198059417       -1.8336045278        0.0016139431
 C         -6.8128459031       -0.6961662433        0.0042063420
 F         -8.1537310250       -0.8572612599        0.0098743599
 C         -6.2820300450        0.5913758640        0.0014676543
 C         -7.1610501785        1.8038665067        0.0057283699
 C         -4.9021376641        0.7056996239       -0.0041045431
 N         -2.1265129869        0.9661286066       -0.0044170262
 C         -0.8322822412        1.1450257922       -0.0019966875
 N         -0.2575375199        2.3182734953        0.0044278481
 N         -0.0041828031        0.0006132594       -0.0075943794
 C          0.8550804005        4.8745646855       -0.0043184389
 C          1.4288354824        6.1277123579       -0.0134835726
 C          2.8092321567        6.2367581818       -0.0099796140
 F          3.3583208595        7.4702341782       -0.0206549931
 H          5.6436056407        4.3633324075        0.1796850698
 H          5.4382159049        6.0271088229        0.7651040618
 H          5.4643631438        5.7046610302       -0.9629884820
 H          3.6676807847        2.9878531697        0.0298611169
 H          4.2122231890       -2.1765173851        0.0074571342
 H          5.6723415530       -4.2069256059       -0.0014328987
 H          2.3954616688       -7.6600643900        0.8677194287
 H          0.9673862695       -7.0747072359       -0.0032152305
 H          2.3896385201       -7.6530563629       -0.8881432089
 H          0.7596866437       -4.6804205130        0.0017294720
 H         -4.0026755070       -2.5612553685       -0.0047532277
 H         -6.4916912432       -2.8035906349        0.0042388653
 H         -6.9539594087        2.4135354385        0.8837075379
 H         -8.2104920649        1.5229657100        0.0136876136
 H         -6.9667653100        2.4110847135       -0.8768125477
 H         -4.4408500617        1.6813331237       -0.0065536244
 H         -0.2157097321        4.7502889076       -0.0078065619
 H          0.8280648362        7.0233971587       -0.0240217350
  55
       -101.70058348
 C          0.9340769516        7.2856175623        0.0226627300
 C          1.7447753996        6.0282696749        0.0084207013
 C          1.1649793307        4.7737599656        0.0055311865
 C          1.9445645432        3.6116268427       -0.0014033528
 C          1.3085146208        2.3159560580       -0.0049753848
 N          2.0839029173        1.2233169938       -0.0125196056
 C          1.5497642772        0.0312536875       -0.0138305299
 N          2.2387185379       -1.0789337288       -0.0182407494
 C          1.6159996228       -2.2647866050       -0.0140302830
 C          2.4169572780       -3.4660113926       -0.0106908812
 C          3.8139121448       -3.3851037514       -0.0325691526
 C          4.5650602639       -4.5392455473       -0.0274010562
 C          3.9218820300       -5.7672932445        0.0016219702
 F          4.6828385314       -6.8828915249        0.0072720303
 C          2.5347166646       -5.8900611334        0.0241003086
 C          1.8635057706       -7.2281637654        0.0617604903
 C          1.7973698105       -4.7184162050        0.0162797615
 N          0.2819373401       -2.3903512311       -0.0106012073
 C         -0.4817185612       -1.3304182772       -0.0100936246
 N         -1.7873503932       -1.3734599060       -0.0101964089
 C         -2.5038697288       -0.2412415175       -0.0059086220
 C         -3.9436626217       -0.3419346848       -0.0054688202
 C         -4.5606334391       -1.5970744147       -0.0235512983
 C         -5.9360976012       -1.6854129676       -0.0228888705
 C         -6.6851566296       -0.5212641919       -0.0029256987
 F         -8.0318184116       -0.6205019297       -0.0018934891
 C         -6.1088053492        0.7486593597        0.0156879729
 C         -6.9733768817        1.9692652018        0.0400033503
 C         -4.7285686512        0.8165242317        0.0133303140
 N         -1.9462312282        0.9770881234       -0.0011534032
 C         -0.6461690950        1.1097020449       -0.0033121148
 N         -0.0305814359        2.2619135536       -0.0010022275
 N          0.1404354868       -0.0631039082       -0.0083418081
 C          3.3396093668        3.7128065336       -0.0066752957
 C          3.9364897915        4.9551093142       -0.0036949199
 C          3.1381442693        6.0865782144        0.0047815931
 F          3.7361564794        7.2970012600        0.0069689943
 H          1.0273146256        7.7796380708        0.9895841508
 H         -0.1142911597        7.0685486710       -0.1600291025
 H          1.2962214346        7.9782102341       -0.7351752817
 H          0.0909203980        4.6701270825        0.0084972103
 H          4.2811699829       -2.4138468486       -0.0538248273
 H          5.6431962175       -4.5104661303       -0.0448483204
 H          1.3317649558       -7.3522830114        1.0042270211
 H          1.1372764420       -7.3075063205       -0.7449900265
 H          2.5896363745       -8.0303627382       -0.0358439128
 H          0.7190218666       -4.7584784291        0.0319680440
 H         -3.9443694634       -2.4814578820       -0.0383351624
 H         -6.4401165105       -2.6389256765       -0.0372175129
 H         -7.5828778963        1.9791205086        0.9429502841
 H         -7.6523061223        1.9669922464       -0.8116459846
 H         -6.3678240348        2.8701737782        0.0112009283
 H         -4.2297909891        1.7733003546        0.0265451978
 H          3.9286972617        2.8101575832       -0.0114976561
 H          5.0094075115        5.0656473612       -0.0070049624
