  91
       -144.90050670
 N         -9.9101448911        2.6810313298        0.7611776764
 C         -8.9862780335        2.0444209944        0.4755184100
 C         -7.8624849161        1.3026004980        0.1611231255
 C         -6.8454445092        1.7669810031       -0.7432038881
 C         -7.0374937084        2.9596285387       -1.5741469022
 C         -8.2824983799        3.3101444840       -2.0904955930
 C         -8.4131252929        4.4390403281       -2.8775694360
 C         -7.3109400811        5.2292652988       -3.1583623330
 C         -6.0666057197        4.8780330753       -2.6587666670
 C         -5.9271815942        3.7498928308       -1.8762912324
 N         -5.7123788754        1.1458905853       -0.8546156530
 C         -5.4215474332        0.0268664539       -0.1581661654
 C         -4.1564751311       -0.5987005942       -0.2892895099
 C         -3.1654483716       -0.0500237817       -1.1301798600
 C         -1.9323767624       -0.6373476389       -1.2364721999
 C         -1.6369006638       -1.7974899039       -0.5099010552
 N         -0.3676990106       -2.3830371887       -0.6081072525
 C         -0.1066540136       -3.7123985910       -0.8725272841
 C         -0.9908377641       -4.7488057381       -1.1375730687
 C         -0.4589294590       -5.9988178076       -1.3950502731
 C          0.9165091073       -6.2168839729       -1.3988647845
 C          1.8030397036       -5.1825208534       -1.1593746265
 C          1.2932012431       -3.9199109925       -0.8984093014
 C          1.8970171076       -2.6406837431       -0.6374547428
 C          3.2066632138       -2.2118518411       -0.5299214535
 C          3.4646339238       -0.8747176978       -0.2302722396
 C          4.8420547955       -0.3923523595       -0.1052616501
 C          5.8396878038       -0.8751640765       -0.9676814913
 C          7.1459754170       -0.4421494391       -0.8957673550
 C          7.4686665592        0.5032171634        0.0700399698
 C          6.4854130283        0.9809805409        0.9694039696
 C          5.1776524439        0.5399294900        0.8736901066
 C          7.1549651718        1.8932552711        1.8563804651
 C          6.7285129315        2.6791512646        2.9175203216
 C          7.6517664825        3.4849517184        3.5556083032
 C          8.9793832046        3.5237509216        3.1371925939
 C          9.4270936407        2.7503803138        2.0823201667
 C          8.5096513634        1.9212511246        1.4538942009
 N          8.6827454375        1.0754035239        0.3740822286
 C          9.8918061038        0.8460032896       -0.2991763395
 C         11.0365585490        0.5091991925        0.4171681713
 C         12.2279256987        0.2924865818       -0.2500065738
 C         12.2856353316        0.3994353058       -1.6297495101
 C         11.1454032325        0.7285611301       -2.3439067733
 C          9.9514053115        0.9565769462       -1.6852770295
 C          2.3899430192        0.0088516741       -0.0336777560
 C          1.0780999099       -0.3943896618       -0.1462131855
 C          0.8280187164       -1.7253980885       -0.4644228177
 C         -2.6155079206       -2.3606043694        0.3180766274
 C         -3.8498448531       -1.7748705338        0.4266258712
 N         -6.3683380184       -0.4865437342        0.6558694181
 C         -7.5294014622        0.0677582860        0.8187611080
 C         -8.4722784194       -0.6010895622        1.7205248175
 C         -7.9690182613       -1.3041345050        2.8163462835
 C         -8.8269315742       -1.9488236468        3.6840618274
 C        -10.1955369409       -1.9094718183        3.4675071299
 C        -10.6996795432       -1.2292355200        2.3714960031
 C         -9.8472284037       -0.5768427661        1.5004300398
 H         -9.1462947744        2.6945667574       -1.8930272035
 H         -9.3826251307        4.7023354141       -3.2734403690
 H         -7.4200823008        6.1143631366       -3.7675063445
 H         -5.2026610239        5.4879306372       -2.8796105258
 H         -4.9634473388        3.4697856621       -1.4782082799
 H         -3.4076119959        0.8365501503       -1.6957906624
 H         -1.1846466414       -0.2282477630       -1.9005866734
 H         -2.0568407238       -4.5825415414       -1.1547775136
 H         -1.1247883417       -6.8233105062       -1.6016710695
 H          1.2932723050       -7.2081029967       -1.6019174438
 H          2.8692817865       -5.3503790881       -1.1776066267
 H          4.0190403667       -2.9135472925       -0.6427926152
 H          5.5674130949       -1.5913018244       -1.7283586352
 H          7.8949519725       -0.8337253822       -1.5673236668
 H          4.4345096687        0.8913998261        1.5728646766
 H          5.6961177286        2.6608253687        3.2319674137
 H          7.3417338720        4.1023736621        4.3852011902
 H          9.6745440358        4.1754199750        3.6452037087
 H         10.4539098497        2.8015543136        1.7533408736
 H         10.9816077875        0.4048279298        1.4904681501
 H         13.1135370167        0.0316294191        0.3099742208
 H         13.2170473156        0.2269424220       -2.1471557050
 H         11.1871840237        0.8170402827       -3.4192581696
 H          9.0656550402        1.2365314804       -2.2357677165
 H          2.6024707408        1.0432824826        0.1905383865
 H          0.2685264385        0.3003487607        0.0159039483
 H         -2.3749618438       -3.2438788155        0.8919421003
 H         -4.6076024999       -2.1951902898        1.0698493838
 H         -6.9017181238       -1.3244950591        2.9780580725
 H         -8.4286051106       -2.4832129492        4.5342978182
 H        -10.8664841172       -2.4102651362        4.1497447036
 H        -11.7642359580       -1.2047101005        2.1923843503
 H        -10.2517321062       -0.0633803628        0.6420251464
