91
 energy: -144.974688662958 gnorm: 0.000130836248 xtb: 6.7.1 (edcfbbe)
N           -9.99032395900128        2.54967949652770        0.76787868108136
C           -9.05764928297536        1.95031618736443        0.46575746592741
C           -7.88092505354956        1.24740583033366        0.15487386613484
C           -6.87420090996883        1.80767057371372       -0.66152664561059
C           -7.05579943368164        3.06341519860743       -1.39628274406396
C           -5.96485506913080        3.91853842491926       -1.54433716011021
C           -6.10180648314828        5.10966603706153       -2.22930425386411
C           -7.32324174802734        5.45337269877069       -2.78654988136635
C           -8.40471643664557        4.59694876477989       -2.66334782374269
C           -8.27621993202173        3.40660517958422       -1.97207245032268
N           -5.69648019981919        1.21790166628641       -0.78527007626175
C           -5.48282758503203        0.07431645169614       -0.14056964972838
C           -4.16321583242960       -0.53491774688100       -0.25721701510023
C           -3.17467255164464        0.06829952120010       -1.03573982995851
C           -1.92853776709909       -0.50750939070498       -1.14938686522605
C           -1.64264933754015       -1.69926092605969       -0.48163347520857
N           -0.38164199611215       -2.28520598484460       -0.59838006816362
C           -0.12956856117803       -3.61605428365429       -0.88093551895498
C           -1.01690829953530       -4.64475861001060       -1.16174579670893
C           -0.49127890353791       -5.89078798721489       -1.44734089825307
C            0.88318298438909       -6.11430578467257       -1.46598445438481
C            1.77178171878082       -5.08737021536880       -1.21660670478765
C            1.26703575248765       -3.82715562903796       -0.92697635893560
C            1.88266090393102       -2.55779311245577       -0.65291371509559
C            3.20239296053622       -2.14882960396912       -0.54526474561466
C            3.47938051930086       -0.82433929337189       -0.23126650187032
C            4.87019441405215       -0.36071125611699       -0.11437584658244
C            5.83104887623312       -0.79250492276592       -1.03916674366532
C            7.14676763988938       -0.38254845149867       -0.97683911874820
C            7.51042644817970        0.48802732114293        0.04068891762906
C            6.56308638962887        0.91436206337449        0.99938158683219
C            5.24488137598208        0.49423721164172        0.91390033271470
C            7.27117330779579        1.75188979527532        1.92694664926757
C            6.88727346480248        2.46569941559134        3.05428370449775
C            7.83912307510520        3.20997489779068        3.72185182506406
C            9.15573981281646        3.26013378830066        3.26924222460327
C            9.56174171592883        2.55873367701372        2.15013589080882
C            8.61508948105803        1.78931436804693        1.48909595772188
N            8.74543005388405        1.02200044373537        0.34825682768087
C            9.92901817632719        0.82088335619146       -0.37520823835232
C           11.09005904597445        0.42011482284324        0.27966827371488
C           12.25628397650514        0.22900816529386       -0.43771860222025
C           12.27347988748311        0.42392384366559       -1.80883828650285
C           11.11755978245258        0.81693371932530       -2.46277401943900
C            9.94915527608640        1.02095912144586       -1.75259793270799
C            2.42148233870301        0.06826697542942       -0.01298653652560
C            1.10048085393926       -0.31669560815478       -0.11963919934128
C            0.83121455782745       -1.63420676196593       -0.46056429617361
C           -2.62862532049383       -2.30245643455361        0.30052670674969
C           -3.87566479033645       -1.72728893457638        0.40803792564383
N           -6.39545613909502       -0.55836059209752        0.59166414196777
C           -7.58594875892073       -0.00179075400801        0.74340416188562
C           -8.55355985104619       -0.74131600855680        1.56001648167209
C           -9.91169384760028       -0.75618846531277        1.25355023575143
C          -10.79149477652368       -1.47207499641691        2.04396153102170
C          -10.32861669206267       -2.17590620281767        3.14332132722238
C           -8.97584759791265       -2.17729850568787        3.44425191481831
C           -8.09080789431778       -1.47112770544802        2.65379240686379
H           -5.02042219334455        3.63697855204827       -1.10429061819616
H           -5.25519217241276        5.77259625237661       -2.33047585138092
H           -7.43066713629980        6.38512524171393       -3.32183196877589
H           -9.35367547630051        4.85558427323543       -3.10858886198461
H           -9.11942488912017        2.73602378876066       -1.90094561995799
H           -3.41035529839290        0.98288283581635       -1.55680090761971
H           -1.17249970698719       -0.05516507684004       -1.77340154390041
H           -2.08358242647110       -4.47971838437742       -1.17246477670776
H           -1.16255699621390       -6.70828542146370       -1.66529727066926
H            1.25429885983606       -7.10325579537142       -1.69009753605253
H            2.83779047543089       -5.25438098187698       -1.24973226404840
H            4.00400044286409       -2.85969248761708       -0.67721134545892
H            5.52474096628116       -1.45400016318807       -1.83615739648314
H            7.87006273705808       -0.73805110768110       -1.69533436530663
H            4.52578597951452        0.80722296534642        1.65586930894240
H            5.86323717761308        2.43886916874578        3.39528227825401
H            7.56234124268327        3.77039907913575        4.60248081862667
H            9.87496163024497        3.86380881168123        3.80304668323697
H           10.58033339407077        2.61880946370248        1.79723900386541
H           11.06702447013352        0.24740908766538        1.34533935273469
H           13.15417610706338       -0.08191072305398        0.07565572940661
H           13.18506721436771        0.26977300783714       -2.36617522023068
H           11.12740796270481        0.97404116065296       -3.53127175235185
H            9.05171445509470        1.34915889439068       -2.25548493362041
H            2.65012095235517        1.09523379974808        0.23084203892398
H            0.30545117463088        0.38904482008151        0.06806344788691
H           -2.39840521154550       -3.21157776545085        0.83542662797637
H           -4.64477650445546       -2.18437547216528        1.01051352055340
H          -10.27974828004129       -0.22879254212040        0.38626071320493
H          -11.84299186216734       -1.48056286142348        1.79912234895237
H          -11.02091430912233       -2.72794565080771        3.76154910454758
H           -8.61178682275690       -2.73113397096799        4.29701340955802
H           -7.03458678242955       -1.46185935033891        2.87565506689330
