91
 energy: -144.904636205554 gnorm: 0.000106014825 xtb: 6.7.1 (edcfbbe)
N           -9.97684367403391        2.63600961575881        0.72384583472751
C           -9.03823294813322        2.01604227518272        0.45005204662641
C           -7.89819583365856        1.29318180731374        0.15018674841626
C           -6.87556876979770        1.77237079369799       -0.74238671508639
C           -7.07845528662859        2.95763051184624       -1.58031799809410
C           -8.32421664197643        3.28153388649954       -2.11245670193973
C           -8.46761854664469        4.40344225298472       -2.90712932803651
C           -7.37755849026672        5.21311908895341       -3.17996515318719
C           -6.13247307978260        4.88862838220296       -2.66445572434209
C           -5.98005318673470        3.76744322040464       -1.87425562938543
N           -5.73249860233763        1.16880657773638       -0.83431364575870
C           -5.42543319067733        0.05484632052100       -0.13608067869691
C           -4.15240618913064       -0.55698973493995       -0.25553397433483
C           -3.16314271626946       -0.00638256230842       -1.09519229361397
C           -1.92757526482321       -0.59126502000037       -1.20028213314416
C           -1.62892744488227       -1.74683133799329       -0.47022418479137
N           -0.36132077109554       -2.33745586512311       -0.57377789846384
C           -0.10967835459222       -3.66803565904111       -0.83983547136856
C           -1.00141355184777       -4.69895766561455       -1.10130323036982
C           -0.47855253510272       -5.95225470246256       -1.36011479346732
C            0.89551721983260       -6.17913010097839       -1.36907598437122
C            1.78921543458310       -5.15058540790393       -1.13311333578563
C            1.28847310119847       -3.88444233641620       -0.87041963188236
C            1.90126946726065       -2.60944095889639       -0.61057908014456
C            3.21460221690280       -2.18932342583984       -0.50742086439293
C            3.48239470665016       -0.85436786152575       -0.20978872898213
C            4.86438846670196       -0.38071055179411       -0.09184367214176
C            5.85191661377605       -0.86499326712834       -0.96449599825685
C            7.16154230728084       -0.44038724152354       -0.90042283347834
C            7.49720881217596        0.49779878566908        0.06763680757007
C            6.52439895382828        0.97655006354109        0.97726279648641
C            5.21288377062493        0.54375265620552        0.88922061717849
C            7.20670255940548        1.87929032990634        1.86407759392209
C            6.79416156559185        2.66074681952146        2.93407789109351
C            7.72761694455794        3.45626056707146        3.56991473452992
C            9.05211075756144        3.48947449265734        3.14091695880816
C            9.48625650238569        2.72023442300287        2.07753068464350
C            8.55844010121010        1.90117602062491        1.45104382977614
N            8.71769995687811        1.06099256633708        0.36508750062921
C            9.91937672363364        0.82587029685772       -0.31920469982953
C           11.06651552503543        0.47262355096178        0.38525281869907
C           12.24985432545448        0.24752762149329       -0.29333530669087
C           12.29717140902873        0.36287473153429       -1.67279411065950
C           11.15476822846278        0.70946058547487       -2.37510862066079
C            9.96881554515990        0.94560633783059       -1.70495575434182
C            2.41494618552014        0.03639355715581       -0.01014641308862
C            1.09961258661452       -0.35812135564950       -0.11747387119949
C            0.83964524353465       -1.68724817057255       -0.43375194146733
C           -2.60288314775725       -2.30655279333078        0.36352697557033
C           -3.84061688724181       -1.72557712841989        0.46831738267315
N           -6.37941841847489       -0.46759485410737        0.66501878374510
C           -7.55196228846972        0.06372710339522        0.81275526258612
C           -8.49755523139846       -0.62467868307297        1.69631864296066
C           -8.00243652881995       -1.32148436150087        2.79964647060559
C           -8.86499859721292       -1.98535924586069        3.64832484546328
C          -10.22942092242972       -1.97189020341085        3.40449513817889
C          -10.72491727853702       -1.29785833088293        2.30068099993888
C           -9.86815834259298       -0.62622624890624        1.44882919202758
H           -9.17814975420589        2.65029804169158       -1.92159670279664
H           -9.43748958777542        4.64582835927966       -3.31516807797086
H           -7.49677199601958        6.09254609619752       -3.79533451249829
H           -5.27801337952437        5.51390164171321       -2.87897936310160
H           -5.01541636561137        3.50891880902466       -1.46381916022170
H           -3.40638226278940        0.87824457418549       -1.66356547965041
H           -1.18126968991845       -0.18081394237682       -1.86506169638334
H           -2.06647734742427       -4.52589638366464       -1.11419350410661
H           -1.15044900455495       -6.77257279414066       -1.56398748793785
H            1.26501486106427       -7.17300155985560       -1.57278374891918
H            2.85431485363465       -5.32529691411154       -1.15532863584790
H            4.02186773167734       -2.89643053919066       -0.62355498579013
H            5.56927515208884       -1.57599769278648       -1.72631345540412
H            7.90308580553708       -0.83286177907733       -1.57974398287065
H            4.47714632254044        0.89624112428367        1.59578478428514
H            5.76422911323709        2.64682335103766        3.25686972910992
H            7.42841968118306        4.06984063859770        4.40635630853763
H            9.75548256312506        4.13335915168153        3.64763180296074
H           10.51078518225887        2.76657896913764        1.74062224769847
H           11.01942018258160        0.36216982186582        1.45834472733503
H           13.13719511362286       -0.02692624213588        0.25740400810723
H           13.22216563304602        0.18320404256990       -2.19924262907140
H           11.18861874290277        0.80480738887421       -3.45018811737463
H            9.08133823780449        1.23817744025696       -2.24605724798431
H            2.63544947744909        1.06955162104379        0.21266159812997
H            0.29533440509811        0.34239220379821        0.04667703833198
H           -2.35964148375956       -3.18651458065067        0.94120871426799
H           -4.59652881173219       -2.14729858833974        1.11291739486947
H           -6.93851603063310       -1.32166375597573        2.98366180414338
H           -8.47329630091853       -2.51457154232175        4.50479084775085
H          -10.90400149944881       -2.48818761476316        4.07132400496487
H          -11.78592702688433       -1.29347509913955        2.10036607575563
H          -10.26510928313526       -0.11865967243172        0.58338882886538
