  68
       -110.42889939
 N         -1.6627112312        6.6147152382       -1.5006892857
 C         -1.5677340387        5.4995170164       -1.2339520681
 C         -1.4412634273        4.1352708358       -0.9242933666
 C         -0.6211096889        3.3322923583       -1.7049408838
 C         -0.4901273758        1.9805036491       -1.4231779911
 C         -1.1769137305        1.4109088140       -0.3650725909
 N         -1.0175297529        0.0421664015       -0.1077183551
 C          0.2083848851       -0.5992368076        0.1177177941
 C          1.4396873175        0.0696925504        0.3212762853
 C          1.4630270522        1.3796894210        0.8587757389
 C          2.6231949606        2.0500321265        1.0839294658
 C          3.8854608561        1.4719522439        0.7613029589
 C          5.0826468055        2.1665565256        0.9554102880
 C          6.2978909177        1.5841335813        0.6662939161
 C          6.3636320577        0.2727416565        0.1622436468
 C          7.5953782589       -0.3463606477       -0.1437436226
 C          7.6370742541       -1.6367951979       -0.6400346487
 C          6.4732874570       -2.3458763809       -0.8506494657
 C          5.2137204701       -1.7694064857       -0.5591352392
 C          4.0093419011       -2.4588444272       -0.7628576511
 C          2.7927560029       -1.8746387836       -0.4747333992
 C          2.7070793173       -0.5786680383        0.0467182735
 C          3.9096173511        0.1458715427        0.2558325261
 C          5.1588421664       -0.4490992669       -0.0453482540
 N          0.0358695906       -1.9185267874        0.2084003064
 C         -1.2739782139       -2.1464257873        0.0795494718
 C         -1.9549055735       -3.3920729359        0.1919398273
 C         -1.2585902165       -4.5674237584        0.4889786240
 C         -1.9352859219       -5.7540327010        0.6421915748
 C         -3.3201216342       -5.7708901550        0.5063246232
 C         -4.0144008181       -4.6184865936        0.2067751623
 C         -3.3588593968       -3.3930368203        0.0294912559
 C         -4.0557379037       -2.1674222678       -0.3320858258
 C         -5.4279080606       -2.1599281301       -0.6020002941
 C         -6.0905520911       -1.0182600444       -0.9964843392
 C         -5.3897251580        0.1711545309       -1.1669701629
 C         -4.0436630048        0.2113657693       -0.9020550084
 C         -3.3558187656       -0.9307368137       -0.4561010155
 C         -1.9704211954       -0.9399398396       -0.1562796432
 C         -2.0067818377        2.2056785782        0.4784470543
 C         -2.6684139672        1.6784326333        1.6043469450
 C         -3.4566084049        2.4775652629        2.3910868468
 C         -3.6179573222        3.8322999275        2.0853177607
 C         -2.9707245679        4.3788370349        1.0070180773
 C         -2.1471086253        3.5871271421        0.1866852228
 H         -0.0922897388        3.7635050204       -2.5413895703
 H          0.1449352921        1.3597239841       -2.0373260984
 H          0.5349385790        1.8365447646        1.1630690831
 H          2.6056160789        3.0328900141        1.5314249624
 H          5.0430332744        3.1757304929        1.3398798735
 H          7.2155311988        2.1313090769        0.8251081389
 H          8.5089865235        0.2066523040        0.0165951157
 H          8.5907867717       -2.0910574398       -0.8663355114
 H          6.5057297634       -3.3517165566       -1.2420898210
 H          4.0416017933       -3.4647266091       -1.1555907087
 H          1.8823767424       -2.4266536947       -0.6398931224
 H         -0.1873606209       -4.5058921723        0.6022869849
 H         -1.4023408850       -6.6638136654        0.8734019378
 H         -3.8600442323       -6.6972252222        0.6370354674
 H         -5.0869051249       -4.6818727744        0.1155924740
 H         -5.9970175997       -3.0710712258       -0.5142081536
 H         -7.1515331039       -1.0530324672       -1.1928319233
 H         -5.8992577156        1.0587911602       -1.5103855133
 H         -3.5023716873        1.1273835026       -1.0664676629
 H         -2.5451167449        0.6345536826        1.8511847503
 H         -3.9562743582        2.0603502580        3.2522873214
 H         -4.2488595215        4.4493249588        2.7069440375
 H         -3.0804490075        5.4269128046        0.7702665710
  68
       -110.42813493
 N         -1.7072373826        6.4972358879       -1.9056280557
 C         -1.6199639644        5.4063627273       -1.5493220574
 C         -1.4730794240        4.0715749024       -1.1362590554
 C         -0.7522818711        3.1887024088       -1.9277408209
 C         -0.6192734526        1.8595158117       -1.5514481847
 C         -1.2135169675        1.3912888184       -0.3940428111
 N         -1.0625555511        0.0335101991       -0.0637148862
 C          0.1782267590       -0.6015438982        0.0903265699
 C          1.4017612794        0.0768674986        0.3043984043
 C          1.4091711901        1.3743531945        0.8720052758
 C          2.5614814338        2.0333068218        1.1609025528
 C          3.8341847835        1.4577857279        0.8766148034
 C          5.0244133573        2.1356779809        1.1530980591
 C          6.2486350898        1.5591998614        0.8900832222
 C          6.3298009114        0.2734936597        0.3263298434
 C          7.5709874242       -0.3367117492        0.0400100427
 C          7.6281118720       -1.6013405030       -0.5167503439
 C          6.4712528914       -2.2933567438       -0.8078294944
 C          5.2028773298       -1.7255693167       -0.5383177363
 C          4.0052161890       -2.3979822141       -0.8224988171
 C          2.7798348222       -1.8239489988       -0.5502110185
 C          2.6778515827       -0.5560067823        0.0327353487
 C          3.8736844486        0.1546152543        0.3161406697
 C          5.1319498739       -0.4312555237        0.0359624522
 N          0.0254032437       -1.9259576710        0.1248920025
 C         -1.2851276686       -2.1649529570        0.0290805288
 C         -1.9363112567       -3.4310858671        0.0490392450
 C         -1.2012239990       -4.6145822406        0.1670701810
 C         -1.8417937457       -5.8305905031        0.1754641318
 C         -3.2289370547       -5.8703088369        0.0703177652
 C         -3.9621333254       -4.7088288521       -0.0422360788
 C         -3.3449900370       -3.4507535257       -0.0586466543
 C         -4.0856247847       -2.2080565921       -0.2135497284
 C         -5.4811207780       -2.1978604560       -0.3080380057
 C         -6.1941027889       -1.0365050905       -0.5090670624
 C         -5.5251048968        0.1742334161       -0.6572439276
 C         -4.1573314694        0.2125742942       -0.5523789667
 C         -3.4127812218       -0.9519260395       -0.2933083922
 C         -2.0070087996       -0.9580719245       -0.1135476620
 C         -1.9277516897        2.2733738916        0.4662979413
 C         -2.4737481286        1.8511558929        1.6944102981
 C         -3.1396508621        2.7350360012        2.5031179864
 C         -3.2929446963        4.0702024476        2.1158719943
 C         -2.7629265408        4.5125710978        0.9309973702
 C         -2.0620140548        3.6335511405        0.0859512502
 H         -0.3061847159        3.5369358026       -2.8469739254
 H         -0.0615321127        1.1754095238       -2.1737449884
 H          0.4732563094        1.8305074740        1.1498396609
 H          2.5286160126        3.0045284419        1.6323840958
 H          4.9724036003        3.1272642850        1.5797107138
 H          7.1610043536        2.0925600409        1.1133976008
 H          8.4791217431        0.2036088677        0.2626016142
 H          8.5886222117       -2.0480128672       -0.7290555602
 H          6.5163335263       -3.2781224957       -1.2482397419
 H          4.0498825229       -3.3832976430       -1.2632829035
 H          1.8752242365       -2.3636567637       -0.7761011311
 H         -0.1282487575       -4.5374171192        0.2502700169
 H         -1.2784554337       -6.7473617604        0.2616532856
 H         -3.7394939450       -6.8221902824        0.0735034032
 H         -5.0336297247       -4.7926875560       -0.1280412535
 H         -6.0311731093       -3.1207450681       -0.2216032108
 H         -7.2715866666       -1.0697321725       -0.5676165915
 H         -6.0771246063        1.0816572305       -0.8505644674
 H         -3.6474509752        1.1504682529       -0.6866433394
 H         -2.3554471668        0.8209288071        1.9965323659
 H         -3.5478764251        2.4017278621        3.4452124852
 H         -3.8252774149        4.7551703254        2.7582328481
 H         -2.8691068244        5.5441176868        0.6288758586
  68
       -110.42801223
 N         -2.5251357245        6.5789736318       -1.0718471253
 C         -2.3063862481        5.4597400982       -0.9233021964
 C         -2.0504415533        4.0873247235       -0.7668457017
 C         -2.4933310066        3.2001233253       -1.7381298585
 C         -2.2348984301        1.8429469961       -1.6147473217
 C         -1.5365378087        1.3518536989       -0.5228480110
 N         -1.2599356417       -0.0212756068       -0.4571413322
 C          0.0094116409       -0.6193327553       -0.4093574736
 C          1.2431560504        0.0722043661       -0.4821617860
 C          1.3287354826        1.3292262689       -1.1271390946
 C          2.4941664896        2.0209041092       -1.2208562885
 C          3.6990079428        1.5200956931       -0.6472100261
 C          4.8967752318        2.2365241744       -0.7145178969
 C          6.0615926289        1.7269450111       -0.1813704910
 C          6.0709831764        0.4718749266        0.4522331069
 C          7.2501560096       -0.0720546082        1.0080652176
 C          7.2378462918       -1.3076446953        1.6292572537
 C          6.0694081933       -2.0339117015        1.7235058820
 C          4.8617324755       -1.5320620185        1.1812665271
 C          3.6543849348       -2.2404263512        1.2605226251
 C          2.4892395266       -1.7314225612        0.7230043889
 C          2.4616259953       -0.4975170425        0.0635475736
 C          3.6670593308        0.2481299076       -0.0185552201
 C          4.8630013964       -0.2695625773        0.5361887057
 N         -0.1066706211       -1.9470317944       -0.3540762385
 C         -1.4109759445       -2.2274397744       -0.3972436029
 C         -2.0207030631       -3.5133136591       -0.4457574681
 C         -1.2453831811       -4.6759727734       -0.4814332997
 C         -1.8477866578       -5.9076489406       -0.5793414174
 C         -3.2354142433       -5.9833785766       -0.6517008752
 C         -4.0082183455       -4.8428189771       -0.6097354433
 C         -3.4316691268       -3.5711555389       -0.4940382567
 C         -4.2176383224       -2.3502710247       -0.3958419276
 C         -5.6135131512       -2.3880728751       -0.3154065977
 C         -6.3701600075       -1.2470703606       -0.1639436236
 C         -5.7474223716       -0.0073076107       -0.0597468711
 C         -4.3802875898        0.0768192850       -0.1457682459
 C         -3.5899818145       -1.0699805063       -0.3405449844
 C         -2.1751741607       -1.0399667420       -0.4321884239
 C         -1.0970080281        2.2243759258        0.5131313148
 C         -0.4429400019        1.7624991252        1.6713262246
 C         -0.0292045758        2.6389485417        2.6392773154
 C         -0.2514252097        4.0123492480        2.4928914040
 C         -0.9049734430        4.4907987842        1.3873982328
 C         -1.3486538408        3.6146786530        0.3803571604
 H         -3.0264642298        3.5725249141       -2.5999048658
 H         -2.5670658360        1.1579356300       -2.3811324724
 H          0.4547138936        1.7245666315       -1.6187635041
 H          2.5280859844        2.9605106810       -1.7526161705
 H          4.8990272612        3.2038314319       -1.1962111291
 H          6.9817915008        2.2889174059       -0.2457983219
 H          8.1662014401        0.4957578559        0.9403163795
 H          8.1517110077       -1.7038887726        2.0482200121
 H          6.0579057327       -2.9960467938        2.2139465364
 H          3.6418498009       -3.2016659613        1.7534756576
 H          1.5767190422       -2.2991991477        0.7971014530
 H         -0.1723083244       -4.5703516818       -0.4416820359
 H         -1.2535832152       -6.8083232844       -0.6091232262
 H         -3.7154074848       -6.9468111231       -0.7423861111
 H         -5.0789216230       -4.9531394794       -0.6744524606
 H         -6.1274471503       -3.3345510715       -0.3573040705
 H         -7.4458204184       -1.3180597161       -0.1065316331
 H         -6.3347428659        0.8855662609        0.0933255504
 H         -3.9044598158        1.0369770449       -0.0376027472
 H         -0.2702983558        0.7041654357        1.7969755579
 H          0.4717347563        2.2696747726        3.5216016121
 H          0.0880742614        4.6937566814        3.2583176887
 H         -1.0916891009        5.5483982827        1.2705855846
  68
       -110.42780464
 N         -2.6731620022        6.5861107342       -1.0665883080
 C         -2.4185930227        5.4734078817       -0.9214360647
 C         -2.1201612148        4.1087662371       -0.7687855065
 C         -2.4464533970        3.2254656912       -1.7886985596
 C         -2.1530132866        1.8754045593       -1.6642625867
 C         -1.5287935843        1.3896177700       -0.5262613306
 N         -1.2337146722        0.0200562364       -0.4458148891
 C          0.0378796619       -0.5687295234       -0.3447781650
 C          1.2745868522        0.1176546670       -0.3903186625
 C          1.3742693385        1.3933994675       -0.9968195996
 C          2.5540968714        2.0571306310       -1.1087208356
 C          3.7657874978        1.5048189941       -0.6012134422
 C          4.9823538321        2.1840647968       -0.7073599811
 C          6.1523734825        1.6247676637       -0.2404007952
 C          6.1473300744        0.3576150257        0.3688554380
 C          7.3319053368       -0.2374159443        0.8563747394
 C          7.3059841007       -1.4833291901        1.4561954710
 C          6.1177634082       -2.1685843028        1.5981424758
 C          4.9041078480       -1.6145598493        1.1248186201
 C          3.6763519816       -2.2784412300        1.2559400370
 C          2.5071595229       -1.7237310334        0.7755367144
 C          2.4930722506       -0.4868768388        0.1213184200
 C          3.7180083863        0.2219868086        0.0036147027
 C          4.9192112829       -0.3431859968        0.4978902903
 N         -0.0754501090       -1.8972773340       -0.2783237445
 C         -1.3749047806       -2.1858675070       -0.3598202421
 C         -1.9743744266       -3.4770425362       -0.3931764385
 C         -1.1906077825       -4.6340273843       -0.3593738791
 C         -1.7814954140       -5.8731957199       -0.4267938223
 C         -3.1658064292       -5.9621340228       -0.5371569368
 C         -3.9467188802       -4.8268336784       -0.5669032862
 C         -3.3822561804       -3.5468218155       -0.4872103388
 C         -4.1780750800       -2.3285951879       -0.4679744302
 C         -5.5761268293       -2.3739828286       -0.4679420260
 C         -6.3471747568       -1.2352710978       -0.3923347469
 C         -5.7384790299        0.0111117496       -0.2847688146
 C         -4.3691864748        0.1027751648       -0.2947775712
 C         -3.5613880687       -1.0423238694       -0.4149308950
 C         -2.1439724094       -1.0037871972       -0.4404678887
 C         -1.1978797313        2.2587083637        0.5516222033
 C         -0.6114278278        1.7987167983        1.7461357150
 C         -0.3159208568        2.6693708114        2.7615760608
 C         -0.5911578367        4.0340933864        2.6266688664
 C         -1.1728579707        4.5106720781        1.4808890351
 C         -1.4951145767        3.6404870867        0.4238920904
 H         -2.9208798540        3.5949724631       -2.6853720258
 H         -2.4028145265        1.1920055231       -2.4625315849
 H          0.4972840900        1.8301289337       -1.4443693393
 H          2.5941585684        3.0129491946       -1.6102333414
 H          4.9949891721        3.1613789743       -1.1684401928
 H          7.0875198778        2.1565600610       -0.3372785509
 H          8.2633173586        0.2992097877        0.7528002596
 H          8.2248309951       -1.9202518906        1.8197870615
 H          6.0955676777       -3.1385487861        2.0721641665
 H          3.6509701118       -3.2422304234        1.7433549326
 H          1.5800521507       -2.2596530869        0.8907344234
 H         -0.1201402234       -4.5184806753       -0.2889970785
 H         -1.1808844971       -6.7698234140       -0.4025362285
 H         -3.6367775127       -6.9320591654       -0.6009444202
 H         -5.0143264494       -4.9487606685       -0.6562986739
 H         -6.0816158416       -3.3245903180       -0.5181120279
 H         -7.4239362897       -1.3125197844       -0.3987182736
 H         -6.3384877332        0.9036028722       -0.1900707776
 H         -3.9072519782        1.0692065983       -0.1853787676
 H         -0.3982878082        0.7464972753        1.8610740775
 H          0.1322745257        2.3024607149        3.6726658554
 H         -0.3473695044        4.7107011451        3.4315375495
 H         -1.3961463227        5.5616842187        1.3706712102
  68
       -110.42532233
 N         -2.6369143433        6.5813180825       -1.4566974513
 C         -2.3869292776        5.4810365308       -1.2325688362
 C         -2.0905612935        4.1293689878       -0.9850730022
 C         -1.9387645284        3.2603605650       -2.0559913010
 C         -1.6218678739        1.9248674482       -1.8371253549
 C         -1.4503226952        1.4502518630       -0.5505058146
 N         -1.1228702139        0.0944247310       -0.3462291267
 C          0.1443741595       -0.4876053474       -0.1412340477
 C          1.3907092156        0.1792887021       -0.1176050771
 C          1.4717748876        1.5955353248       -0.1286683872
 C          2.6362925347        2.2692244590        0.0466042003
 C          3.8687242055        1.5810929828        0.2363103272
 C          5.0635144379        2.2689549728        0.4594043770
 C          6.2564761532        1.5931883304        0.5959191008
 C          6.2991137821        0.1919135578        0.4886000034
 C          7.5124211555       -0.5222806317        0.5996966091
 C          7.5400129040       -1.8998210185        0.4800998232
 C          6.3794541861       -2.6054506181        0.2430757243
 C          5.1382451742       -1.9346459435        0.1266616559
 C          3.9399528770       -2.6138985021       -0.1288634051
 C          2.7389044570       -1.9389095692       -0.2276632009
 C          2.6512920255       -0.5539125004       -0.0557824373
 C          3.8605665238        0.1646493605        0.1518338497
 C          5.0945740682       -0.5238711216        0.2570170870
 N          0.0056715231       -1.8071787535        0.0174261141
 C         -1.2879906298       -2.0982077955       -0.1140598904
 C         -1.9029170585       -3.3810037273       -0.0465692449
 C         -1.1473553762       -4.5299609342        0.2053810777
 C         -1.7526750074       -5.7631425431        0.2466791508
 C         -3.1243569065       -5.8560743942        0.0296771364
 C         -3.8781517417       -4.7288297810       -0.2141496244
 C         -3.2987970757       -3.4530893223       -0.2548360068
 C         -4.0702952265       -2.2407057487       -0.4810227420
 C         -5.4559855217       -2.2847261811       -0.6707206691
 C         -6.2084548558       -1.1459404138       -0.8512380462
 C         -5.5963437586        0.1034757417       -0.8326888086
 C         -4.2378198476        0.1922154487       -0.6611983756
 C         -3.4447727892       -0.9577766717       -0.5011773416
 C         -2.0352088632       -0.9249631119       -0.3484850602
 C         -1.6265545347        2.3018597852        0.5778147624
 C         -1.4861902436        1.8363887367        1.8986745837
 C         -1.6466981982        2.6910183512        2.9580178510
 C         -1.9475691503        4.0393145292        2.7396917651
 C         -2.0954934822        4.5194997601        1.4634302231
 C         -1.9433220719        3.6665209038        0.3560880169
 H         -2.0582696503        3.6289043989       -3.0635205530
 H         -1.4973216970        1.2525774721       -2.6727310421
 H          0.5773796843        2.1734766532       -0.2641284024
 H          2.6417326072        3.3494703162        0.0497427027
 H          5.0396066184        3.3476813101        0.5202189625
 H          7.1735336201        2.1348194533        0.7753516901
 H          8.4241425143        0.0287627659        0.7768122632
 H          8.4799930994       -2.4249227971        0.5692724174
 H          6.4001436753       -3.6802605210        0.1414886256
 H          3.9616117756       -3.6868591053       -0.2533576102
 H          1.8384525186       -2.4909099021       -0.4342412554
 H         -0.0870202544       -4.4142404910        0.3683778012
 H         -1.1740354739       -6.6526062803        0.4449651997
 H         -3.6068249721       -6.8221807889        0.0550130016
 H         -4.9371587575       -4.8533575424       -0.3739110848
 H         -5.9667143908       -3.2337808559       -0.6764539181
 H         -7.2751547097       -1.2230361836       -0.9986763571
 H         -6.1851735748        1.0001786572       -0.9541499256
 H         -3.7748082889        1.1637307625       -0.6420223874
 H         -1.2455287566        0.7973613494        2.0688706418
 H         -1.5368035739        2.3250354306        3.9676210995
 H         -2.0642267167        4.7032721730        3.5827735449
 H         -2.3294848797        5.5592234633        1.2878014270
