  68
       -110.42889939
 N         -1.6627112312        6.6147152382       -1.5006892857
 C         -1.5677340387        5.4995170164       -1.2339520681
 C         -1.4412634273        4.1352708358       -0.9242933666
 C         -0.6211096889        3.3322923583       -1.7049408838
 C         -0.4901273758        1.9805036491       -1.4231779911
 C         -1.1769137305        1.4109088140       -0.3650725909
 N         -1.0175297529        0.0421664015       -0.1077183551
 C          0.2083848851       -0.5992368076        0.1177177941
 C          1.4396873175        0.0696925504        0.3212762853
 C          1.4630270522        1.3796894210        0.8587757389
 C          2.6231949606        2.0500321265        1.0839294658
 C          3.8854608561        1.4719522439        0.7613029589
 C          5.0826468055        2.1665565256        0.9554102880
 C          6.2978909177        1.5841335813        0.6662939161
 C          6.3636320577        0.2727416565        0.1622436468
 C          7.5953782589       -0.3463606477       -0.1437436226
 C          7.6370742541       -1.6367951979       -0.6400346487
 C          6.4732874570       -2.3458763809       -0.8506494657
 C          5.2137204701       -1.7694064857       -0.5591352392
 C          4.0093419011       -2.4588444272       -0.7628576511
 C          2.7927560029       -1.8746387836       -0.4747333992
 C          2.7070793173       -0.5786680383        0.0467182735
 C          3.9096173511        0.1458715427        0.2558325261
 C          5.1588421664       -0.4490992669       -0.0453482540
 N          0.0358695906       -1.9185267874        0.2084003064
 C         -1.2739782139       -2.1464257873        0.0795494718
 C         -1.9549055735       -3.3920729359        0.1919398273
 C         -1.2585902165       -4.5674237584        0.4889786240
 C         -1.9352859219       -5.7540327010        0.6421915748
 C         -3.3201216342       -5.7708901550        0.5063246232
 C         -4.0144008181       -4.6184865936        0.2067751623
 C         -3.3588593968       -3.3930368203        0.0294912559
 C         -4.0557379037       -2.1674222678       -0.3320858258
 C         -5.4279080606       -2.1599281301       -0.6020002941
 C         -6.0905520911       -1.0182600444       -0.9964843392
 C         -5.3897251580        0.1711545309       -1.1669701629
 C         -4.0436630048        0.2113657693       -0.9020550084
 C         -3.3558187656       -0.9307368137       -0.4561010155
 C         -1.9704211954       -0.9399398396       -0.1562796432
 C         -2.0067818377        2.2056785782        0.4784470543
 C         -2.6684139672        1.6784326333        1.6043469450
 C         -3.4566084049        2.4775652629        2.3910868468
 C         -3.6179573222        3.8322999275        2.0853177607
 C         -2.9707245679        4.3788370349        1.0070180773
 C         -2.1471086253        3.5871271421        0.1866852228
 H         -0.0922897388        3.7635050204       -2.5413895703
 H          0.1449352921        1.3597239841       -2.0373260984
 H          0.5349385790        1.8365447646        1.1630690831
 H          2.6056160789        3.0328900141        1.5314249624
 H          5.0430332744        3.1757304929        1.3398798735
 H          7.2155311988        2.1313090769        0.8251081389
 H          8.5089865235        0.2066523040        0.0165951157
 H          8.5907867717       -2.0910574398       -0.8663355114
 H          6.5057297634       -3.3517165566       -1.2420898210
 H          4.0416017933       -3.4647266091       -1.1555907087
 H          1.8823767424       -2.4266536947       -0.6398931224
 H         -0.1873606209       -4.5058921723        0.6022869849
 H         -1.4023408850       -6.6638136654        0.8734019378
 H         -3.8600442323       -6.6972252222        0.6370354674
 H         -5.0869051249       -4.6818727744        0.1155924740
 H         -5.9970175997       -3.0710712258       -0.5142081536
 H         -7.1515331039       -1.0530324672       -1.1928319233
 H         -5.8992577156        1.0587911602       -1.5103855133
 H         -3.5023716873        1.1273835026       -1.0664676629
 H         -2.5451167449        0.6345536826        1.8511847503
 H         -3.9562743582        2.0603502580        3.2522873214
 H         -4.2488595215        4.4493249588        2.7069440375
 H         -3.0804490075        5.4269128046        0.7702665710
