114
 energy: -177.987353198452 gnorm: 0.000050076293 xtb: 6.7.1 (edcfbbe)
C            2.16819632474016       -1.56546836203996        2.53845884585392
C            1.41699535018762       -0.91831080589949        1.57247371261683
C            0.34064949800416       -1.55163537832928        0.97838096969768
C           -0.02958157158980       -2.83265478878762        1.38503406637416
C           -1.18502085741799       -3.54979883730190        0.86720198555523
N           -1.21821721218146       -4.85403499170103        0.76445714934020
C           -2.44696899819978       -5.16821462575436        0.27813412408234
C           -2.95417128877009       -6.45598848927416       -0.05122034032635
C           -2.16975230146934       -7.60408735011360        0.09935686931794
C           -2.66348224464402       -8.83239906274215       -0.26240822063920
C           -3.95168987178104       -8.92484805248521       -0.78572350034351
C           -4.73403005792344       -7.80317926321556       -0.93144840990381
C           -4.26987574483326       -6.53116335714644       -0.56284230291120
C           -5.08601251062170       -5.33348590023464       -0.66455290577269
C           -6.42408555882739       -5.38894038762961       -1.07996608613840
C           -7.22053597965226       -4.26955008171355       -1.12891333388387
C           -6.71384185312837       -3.03498228602869       -0.73621575063420
C           -5.40635626889127       -2.93569983646992       -0.33008837572492
C           -4.56532018126963       -4.05797990196406       -0.31126372597453
C           -3.20091996161089       -4.01213639280464        0.09192122663757
N           -2.37509318963795       -2.97330251578965        0.46424749783365
C           -2.61837821875705       -1.59538080429506        0.35498541261398
C           -2.91316997676909       -1.04573811960548       -0.89173477703204
C           -3.08647796356652        0.31670445171242       -1.01971392482478
C           -2.94019195533886        1.14013139448075        0.09360139713125
N           -3.03625391075529        2.54031495028120       -0.03554170725182
C           -1.96154541172034        3.40348554625355       -0.06622815490894
C           -0.57261461544246        2.97788663779047       -0.13791553977852
C            0.38859510424674        3.69003133713980        0.57895579417744
C            1.71895388017329        3.33448283489783        0.51608480714826
C            2.14299924545873        2.26724202411753       -0.27836252027683
C            3.55918878118179        1.88824288931054       -0.34460266073812
C            4.56412549829218        2.85309053749131       -0.26586261385360
C            5.89652113285517        2.50327361050379       -0.30406205090886
C            6.27520512665037        1.16499924284039       -0.42310591947293
N            7.62257221643185        0.80237675710911       -0.44506651678064
C            8.03638749637757       -0.39600570454527        0.14980820534552
C            7.44661658025262       -0.83975724075779        1.33327023746076
C            7.85555296648305       -2.02476433635961        1.91300153980648
C            8.86162812162433       -2.77977771561943        1.33276847379822
C            9.45517644039493       -2.34030519800083        0.16084999191213
C            9.04646031997956       -1.16149695455875       -0.43192262806566
C            8.56526560439641        1.63361486388103       -1.06301905454065
C            8.24783678652917        2.31055887738229       -2.24022052694487
C            9.18111720066779        3.13019577208984       -2.84437598325956
C           10.44327568648450        3.28193071766095       -2.29398665209615
C           10.76504422276423        2.60783201768692       -1.12733599919688
C            9.83585423935135        1.79266094756760       -0.51089731573350
C            5.27543730679397        0.19606073632218       -0.51834063163887
C            3.94543648161785        0.55401740348153       -0.48176782708379
C            1.17872838546069        1.57193603206248       -1.00855623537499
C           -0.15518436492073        1.91656674030910       -0.93916365482168
N           -2.33862230679803        4.65634944245943       -0.04223090100207
C           -3.69695759891992        4.64036599068042        0.00065217391795
C           -4.58918418344299        5.74855437253656        0.01774078345608
C           -4.11197373062881        7.06289047765481       -0.01754379117322
C           -4.98824178394076        8.11896464426046       -0.01091606009976
C           -6.35880849840265        7.87035239161710        0.02942792587242
C           -6.83893457726291        6.58222841480788        0.06608747301645
C           -5.97595369267355        5.47544009248936        0.06430927408702
C           -6.45487220792126        4.10459653052121        0.11380845577097
C           -7.82185528330900        3.80122156197020        0.18755130280124
C           -8.27999574015222        2.50644830026150        0.24925621559266
C           -7.38075625880548        1.44484956137003        0.24432815498092
C           -6.03379792320089        1.69772892315145        0.16868237294146
C           -5.54684981415988        3.01063490270408        0.09747846432167
C           -4.16338207219759        3.32762546658159        0.01894900739092
C           -2.65943162267232        0.59042958377757        1.33901266416677
C           -2.51377967192313       -0.77628485763548        1.47409024320187
C            0.74674571043612       -3.48551370353766        2.34511469042812
C            1.84067498447880       -2.86007999560187        2.90893655416311
H            3.01021246268394       -1.06398796738160        2.99183510508921
H            1.66670300707610        0.08955727894020        1.27770266915556
H           -0.19338813000724       -1.04371890865337        0.18992174985697
H           -1.17378823669334       -7.48578435717990        0.49696052727108
H           -2.06110156057585       -9.72167904626629       -0.15015490506193
H           -4.34144566874649       -9.88850699771922       -1.08049505915208
H           -5.72305029529569       -7.92398388386134       -1.34412605069862
H           -6.85849662568162       -6.33403206717310       -1.36270915669004
H           -8.24641082857395       -4.35189440846906       -1.45621238961462
H           -7.34593102976730       -2.15944520856297       -0.74702758634499
H           -5.02698094781096       -1.98139068764898       -0.00051710158870
H           -3.00145328600083       -1.69345392388152       -1.75128262862796
H           -3.32701976138979        0.75184720311080       -1.97876523264920
H            0.06914715986685        4.52220763849590        1.18690362084469
H            2.44097593737679        3.88039255226785        1.10496868684979
H            4.29820094551245        3.89668834928915       -0.18773395851834
H            6.65755437784090        3.26676126805695       -0.23573452107742
H            6.66948438906318       -0.24737217383499        1.79380405004333
H            7.39070696876998       -2.35664812434922        2.82979134719628
H            9.18076569448939       -3.70370567358224        1.79050864409080
H           10.23722681341610       -2.92451767955490       -0.30142831446596
H            9.50401986946958       -0.82644056802816       -1.35130897904863
H            7.26783686398957        2.18516465635633       -2.67709383201633
H            8.92329244233999        3.64713509729061       -3.75706207969576
H           11.17104813836803        3.92051039957231       -2.77108457981676
H           11.74510705149682        2.72382503670442       -0.68839226841189
H           10.08582373125493        1.27485242443229        0.40363415745929
H            5.54997881579131       -0.84337899257827       -0.62239363585698
H            3.19810495138046       -0.22261932333602       -0.54452730382773
H            1.48180430655942        0.76532987364626       -1.65992244285392
H           -0.86935482331995        1.37704292471106       -1.54226511283673
H           -3.04371279703860        7.21013577619115       -0.05267518907512
H           -4.62437189847824        9.13542963502177       -0.03872531942518
H           -7.05304441603983        8.69833945676303        0.03167291492957
H           -7.90751682366857        6.43952685742831        0.09521585132060
H           -8.54819345229757        4.59760683443099        0.20088011241596
H           -9.34104391424720        2.31300882234880        0.30641545837086
H           -7.73956551249290        0.42790839367916        0.30397177111540
H           -5.33733367640280        0.87399902416996        0.17128968598241
H           -2.55878148593843        1.23926770798733        2.19567091176193
H           -2.29680627377810       -1.21228587234959        2.43706630387515
H            0.46820018248346       -4.48675759274017        2.63404151611494
H            2.43352467876733       -3.37828643458295        3.64808409993535
