114
 energy: -177.908988078679 gnorm: 0.000144844753 xtb: 6.7.1 (edcfbbe)
C            2.30040860109753       -2.32465480137150       -1.93423870725628
C            1.15102127597455       -1.68957254092986       -2.37630607459646
C           -0.08988232368658       -2.08705255493979       -1.91340951138224
C           -0.19521741830200       -3.14115296113715       -1.00861647632873
C           -1.47848088335406       -3.64183039405047       -0.53920106777878
N           -1.73065568345148       -4.91623494628138       -0.37145526094974
C           -3.02449065677404       -4.99187296831485        0.03505843884003
C           -3.78500235425023       -6.15922864502391        0.32301844515251
C           -3.22826133495721       -7.43593266758524        0.19460258408376
C           -3.98312384651088       -8.55111803029276        0.45871352535340
C           -5.31127270821352       -8.40038939048069        0.85252672995168
C           -5.86769451979681       -7.14974486402729        0.98522045982497
C           -5.12714908385496       -5.98489909274808        0.73174172708430
C           -5.67943868427171       -4.65010421312566        0.88792090382642
C           -6.98906121845237       -4.44377324341268        1.34425763362666
C           -7.50860101909152       -3.18424303399584        1.52782305510022
C           -6.72829011710927       -2.06223401306881        1.26843620427116
C           -5.44390422497523       -2.21993843459068        0.81049700400447
C           -4.90033309156025       -3.49539335873875        0.60136896558804
C           -3.57448596591762       -3.71489951474024        0.13465025855745
N           -2.57116776238843       -2.85556273212933       -0.25097188305698
C           -2.58058794833602       -1.44563551649192       -0.24125396873551
C           -3.23714858928456       -0.73460538772915       -1.24607403340385
C           -3.21893414529526        0.64341890685309       -1.23875008440437
C           -2.55332698942639        1.33037046408747       -0.21906827009774
N           -2.49331684384552        2.72468235422256       -0.22132056833920
C           -1.30038977521452        3.47909245851665       -0.15723789069112
C            0.00980769904210        2.99142598844640       -0.22817170015757
C            0.38624807409483        1.69247277910538       -0.68320416716140
C            1.67366966347872        1.26847815857645       -0.60648287106899
C            2.72105104339585        2.09358680042621       -0.11318289027300
C            4.05468447205615        1.59943489568201       -0.00212748345331
C            4.32071883297686        0.20917280781850        0.07245914421868
C            5.59558890801634       -0.27819596440941        0.15722205680031
C            6.69925628620753        0.59017504418851        0.17391546420596
N            7.99537742500068        0.09266841630393        0.24365381369864
C            8.31546014953549       -1.11583687502560       -0.38329617566180
C            9.21288545347229       -2.00484474265037        0.21050587037506
C            9.52271301807120       -3.19750336017780       -0.41254164187296
C            8.94320474405049       -3.52646311809610       -1.62779959702304
C            8.05057100518689       -2.64755955348820       -2.22091777193255
C            7.73818543375995       -1.44960769773404       -1.60982689675271
C            8.98255038353333        0.79697924797205        0.94026945707360
C            8.66897433154661        1.46701277415666        2.12397297844029
C            9.64590244792721        2.16536136527421        2.80524094318060
C           10.94549793607150        2.20392889979076        2.32512700810696
C           11.26240609720888        1.53718652599465        1.15210148236387
C           10.29230699019351        0.84007359157560        0.45975811068520
C            6.45664667704329        1.97233758596312        0.11702035126750
C            5.17993515928617        2.45792286735811        0.03564629092215
C            2.36110333164301        3.43189110994363        0.22121858442823
C            1.07525746514948        3.86124276743037        0.16350946848576
N           -1.58004435189472        4.79115747888310       -0.07380238537492
C           -2.90115537878634        4.90558383854905       -0.13018131038026
C           -3.66624600665903        6.10900757957951       -0.15215242641599
C           -3.03537890888785        7.35505903325279       -0.15018572130728
C           -3.77841976328212        8.51120328963452       -0.21673203926111
C           -5.16409177244107        8.42415408551099       -0.29470377780156
C           -5.79625449260123        7.19871621856113       -0.29002460221747
C           -5.07422017504912        6.00060501695531       -0.20816832059824
C           -5.71068699169146        4.69444088228378       -0.15348216755355
C           -7.10030655606440        4.56290762745603       -0.09748782346787
C           -7.72084213609538        3.33648458866177        0.00608025006577
C           -6.95503780575763        2.17549588556696        0.08826733675922
C           -5.58872313628083        2.25549710381281        0.03018993506474
C           -4.92959207467458        3.49414118514719       -0.12065292023816
C           -3.52839056912865        3.63100859792018       -0.19660762064461
C           -1.90425661137352        0.61273492442112        0.78955150518064
C           -1.91050046776782       -0.76530169609885        0.77088639377416
C            0.96458341037731       -3.78923712512855       -0.58422541047474
C            2.20243896013988       -3.37592483353700       -1.03668115201032
H            3.26807098101219       -2.00478997017812       -2.29344186278089
H            1.21933462533232       -0.88404621228971       -3.09342199785743
H           -0.97729924876898       -1.59569135414142       -2.28253783083655
H           -2.19858577942752       -7.50710620388902       -0.11982495979371
H           -3.55761813350492       -9.53898675819203        0.36063300689586
H           -5.91162833333130       -9.27545337068066        1.05633914450373
H           -6.90003070660749       -7.08350047454606        1.29032374352061
H           -7.61784853552323       -5.28985868266636        1.56982597133919
H           -8.52167174781924       -3.06603827231767        1.88339834558005
H           -7.12725207622731       -1.07215000937759        1.43299280094728
H           -4.83732352002711       -1.34868466142163        0.62214792884434
H           -3.75361701274167       -1.27196833857530       -2.02812150523607
H           -3.70884079123305        1.20116080561850       -2.02310998834435
H           -0.34490500835575        1.05198008100607       -1.14905899099659
H            1.91355216002847        0.28762483288186       -0.98523513758110
H            3.49823146001024       -0.48801577296964        0.10816164069725
H            5.76339913560248       -1.34263429541284        0.23885639537364
H            9.65475824612077       -1.75594553013940        1.16418363476596
H           10.21556487811441       -3.87905679852677        0.05810388922633
H            9.18602437636895       -4.46101039644770       -2.10969539349725
H            7.60036524643357       -2.89365177807056       -3.17113522672399
H            7.05457586549376       -0.75764922218410       -2.07929476353858
H            7.65948819280711        1.42470453566105        2.50549746752111
H            9.39281167998571        2.67625921127239        3.72226469144821
H           11.70644681009351        2.74938621469758        2.86180672436432
H           12.27151827573192        1.56712745531836        0.76886203388143
H           10.53729044063318        0.33174269195488       -0.46129111564009
H            7.29607277626144        2.65279703851848        0.10959622807972
H            5.03704188131465        3.52345588564280       -0.05034953812770
H            3.12302442525700        4.10964061066826        0.57463248127222
H            0.80771589098697        4.86588350897062        0.44977226094524
H           -1.95776451090117        7.37412473420033       -0.10305897782915
H           -3.29435110693669        9.47634644608298       -0.21582489439685
H           -5.75545761592875        9.32623892693432       -0.35913599211010
H           -6.87254154293960        7.18428121796943       -0.35614541145467
H           -7.72312317507830        5.44252813160597       -0.12426559520887
H           -8.79832203841582        3.27803768572008        0.04206121944595
H           -7.43672750686734        1.21531362672484        0.19959336000749
H           -5.00448778723005        1.35544443469321        0.12605554597407
H           -1.39421994865626        1.14760274826953        1.57567915593061
H           -1.40660066069366       -1.32607453162123        1.54353439655380
H            0.87189710404801       -4.61852427802442        0.09954424541079
H            3.09572359842484       -3.87838026300155       -0.69502290425328
