114
 energy: -177.908985990791 gnorm: 0.000065421919 xtb: 6.7.1 (edcfbbe)
C            2.16288112784149       -2.52888505971889       -1.79050616242902
C            1.06542113520809       -1.81919000508263       -2.25039433089684
C           -0.20814416972112       -2.14650594638106       -1.82287409767048
C           -0.39942402354328       -3.20397381527643       -0.93620633552746
C           -1.72197754577114       -3.62744382562228       -0.50075958814739
N           -2.06185797082500       -4.88442313534514       -0.35866404285126
C           -3.36587666049169       -4.87929306619909        0.02195244232588
C           -4.21039285805643       -5.99686714906833        0.27103921787191
C           -3.74128922854057       -7.30628893371811        0.12347038967067
C           -4.57780028365494       -8.37146482978295        0.34470147924111
C           -5.90067164444552       -8.13698536676248        0.71456074380371
C           -6.37114416039435       -6.85371891931530        0.86685886519092
C           -5.54568083712712       -5.73832654298025        0.65723025836827
C           -6.00712546616901       -4.37212485958873        0.83494846078893
C           -7.30564574138604       -4.08518320672384        1.27924261250724
C           -7.73949118366616       -2.79675476232024        1.48356819939067
C           -6.87994690532982       -1.72643941414824        1.25857547709408
C           -5.60315472627950       -1.96308117447452        0.81360035590273
C           -5.14614231629401       -3.26854700314588        0.58378346218796
C           -3.83094292732632       -3.56990706113410        0.13294404582224
N           -2.76512348004348       -2.77421428508442       -0.21956280073859
C           -2.68536912669846       -1.36687850671039       -0.20508831227523
C           -3.29016940671189       -0.61528297476468       -1.21293379832323
C           -3.18460317526703        0.75856621364222       -1.20442032163222
C           -2.48232154832114        1.40163981920773       -0.18058768524830
N           -2.34373390618191        2.79029573170698       -0.18015754685385
C           -1.11425292981682        3.48421919195024       -0.12410625129110
C            0.17366414264827        2.93945344414070       -0.18694703796256
C            0.49976579615689        1.61508498973619       -0.60596001839868
C            1.77395144227459        1.15053963466972       -0.53587188955488
C            2.85695516368537        1.95502183709462       -0.08763250511485
C            4.17865317214140        1.42617313146454        0.00809810250989
C            4.41030017064097        0.03212418509190        0.11574749467282
C            5.67372961850687       -0.48585801485061        0.19345279109353
C            6.79950279040630        0.35346137483780        0.16748322682831
N            8.08367514554645       -0.17440608664850        0.23398903803738
C            8.36471962138403       -1.41023637684244       -0.35753312964359
C            9.24818920971437       -2.30170444881745        0.25324298441684
C            9.52014103061175       -3.52113311375686       -0.33463857000850
C            8.91613157199797       -3.87438248618459       -1.53101677261809
C            8.03728243216266       -2.99303514273445       -2.14082917811813
C            7.76265617873707       -1.76864244050058       -1.56496106120136
C            9.09960365193660        0.52744950523454        0.89093725631231
C            8.82347142745438        1.24227121315450        2.05760916333477
C            9.82900676346617        1.93760568701886        2.69923789334515
C           11.12033332416883        1.92898222023199        2.19590339479697
C           11.40006472054575        1.21769818954741        1.03970787089941
C           10.40123223929835        0.52291739787392        0.38700632603290
C            6.59146972169791        1.73905246851874        0.07146462575697
C            5.32641511777935        2.25524074374438       -0.00192305228602
C            2.54530618896303        3.31143407844353        0.22057185269250
C            1.27348057958824        3.78091109118956        0.17184920621908
N           -1.32891116199387        4.81014553847615       -0.05948042053853
C           -2.64191212788532        4.99026305642500       -0.12011285768176
C           -3.34489590002972        6.23057126216306       -0.16054348236257
C           -2.65168165075427        7.44290154688548       -0.17391461385974
C           -3.33503817730649        8.63411888729322       -0.25938178072917
C           -4.72307074519865        8.61614636711903       -0.34135202316485
C           -5.41650887507772        7.42444565990135       -0.32166446580260
C           -4.75626644955759        6.19269509260828       -0.21989529950676
C           -5.45793119490506        4.92116291245245       -0.14908907237546
C           -6.85251926657367        4.86143444476404       -0.09555990683929
C           -7.53519455561931        3.66972860569642        0.02122647729970
C           -6.82966203929382        2.47253951392727        0.12083977427106
C           -5.46085757373321        2.48205200106729        0.06754743713326
C           -4.73871082280799        3.68327258069612       -0.09749366199551
C           -3.33217778161149        3.74803991918022       -0.17122297842002
C           -1.88487472728433        0.64410973696916        0.83055343212785
C           -1.97807518719019       -0.73097847764131        0.81069757306975
C            0.70789304771692       -3.92824359274435       -0.49545257616369
C            1.97921512279436       -3.58516318149653       -0.91251300867958
H            3.15672278398444       -2.26389747372855       -2.12202280987446
H            1.19958440569725       -1.01011809280578       -2.95406347327725
H           -1.05478708536947       -1.59727264974587       -2.20601024377587
H           -2.71262391673225       -7.44249981650031       -0.17225780306571
H           -4.22036303408158       -9.38426091272987        0.23050336025719
H           -6.56520836092835       -8.97214414143201        0.88369867099294
H           -7.40303950491619       -6.72195698764852        1.15153714579974
H           -7.99395338591167       -4.89022800080796        1.47986496826158
H           -8.74666330535117       -2.61595596499991        1.82945218250378
H           -7.21168380205216       -0.71487102474097        1.44060362585930
H           -4.93483360943177       -1.13234790994428        0.65299584399166
H           -3.83518053017135       -1.11875941504719       -1.99810315839033
H           -3.63510684222542        1.34689096290245       -1.99000019528150
H           -0.25955419134014        0.98345121884188       -1.03730298322641
H            1.97403198893527        0.14997434018625       -0.88543956659101
H            3.57072989545887       -0.64193113548268        0.18428708606850
H            5.81567148340166       -1.55159368250538        0.30276144554439
H            9.70904097371497       -2.03319634189092        1.19251165107808
H           10.20214174127063       -4.20445129374627        0.14909366322579
H            9.12935286453108       -4.82970073136177       -1.98538873489593
H            7.56858111690981       -3.25799554285346       -3.07691142107247
H            7.08996623714128       -1.07520716795339       -2.04782560032992
H            7.82021900260211        1.23715894015986        2.45744043462226
H            9.60476605946637        2.48357015153079        3.60347426651057
H           11.90362489811473        2.47253015828660        2.70148011803052
H           12.40255182423889        1.21067896372071        0.63840335166862
H           10.61739823676823       -0.02051457328068       -0.52112656208261
H            7.44782051820605        2.39669164802652        0.02809370235905
H            5.20957714505982        3.32098732448773       -0.11880569077410
H            3.33391831113795        3.97210264974461        0.54670671611733
H            1.04363889262568        4.80033516253695        0.43759444038067
H           -1.57461517789077        7.40809567181474       -0.12338046168270
H           -2.80272682073496        9.57345097713021       -0.27036220801465
H           -5.26780043862315        9.54595591488475       -0.42102409051181
H           -6.49191973153281        7.46355934934566       -0.39192181121366
H           -7.42946357563440        5.77133694913202       -0.13497211476321
H           -8.61434500489184        3.66671605018190        0.05439984656531
H           -7.36005404831969        1.53964537992415        0.24189729187018
H           -4.92389960961976        1.55466532723815        0.17788885605557
H           -1.34535074139204        1.14532617264277        1.61920495347010
H           -1.51416653048179       -1.32295152578583        1.58511033464738
H            0.54836534216469       -4.75981183369540        0.17307233388650
H            2.83152244797119       -4.14651385299956       -0.55817478417976
