106
 energy: -171.362255419906 gnorm: 0.000092104640 xtb: 6.7.1 (edcfbbe)
C            5.37684447794054       -6.13206718447779        2.15419963936297
C            6.34643936231360       -5.32187063586808        1.58329989638120
C            5.99740307420184       -4.10059473382412        1.04087928518383
C            4.66859620732323       -3.68078345792636        1.06744371146094
C            4.29601669078677       -2.39048900735783        0.49158977464602
N            5.26335816621729       -1.61126024543839        0.01659219822675
C            4.86892022919427       -0.50076359622551       -0.59539651838685
C            5.87667045191630        0.41526685039850       -1.12154470080478
C            5.50203036955814        1.43543431536249       -1.99298469284016
C            6.44404494026073        2.34116790685526       -2.43874104461561
C            7.76023130208288        2.23887777594973       -2.01632109456167
C            8.13760666199680        1.22135119679592       -1.15345176004174
C            7.20200345685929        0.30844313397349       -0.70757673874718
N            3.59566499072481       -0.13423498122808       -0.71649036347390
C            2.71629156664347       -0.89385769051339       -0.07895004870355
C            1.32892790107398       -0.41819808020434       -0.00174227154823
C            0.29994896590673       -1.34950261881613        0.03564277025304
C           -1.03165722235787       -0.95623017931627        0.03554918593213
N           -2.03657816245680       -1.92700647300369        0.08591733116573
C           -3.12899680600685       -1.91410537962516        0.93115177488234
C           -3.38003584963732       -1.11102258289918        2.03465196679170
C           -4.57582025497135       -1.28923144581164        2.70233480463443
C           -5.49483024926902       -2.25686644932328        2.30126398620060
C           -5.22848420990246       -3.09039015203163        1.23408866318299
C           -4.03464934604262       -2.92629758178213        0.54486183957309
C           -3.45052639031618       -3.58233844414933       -0.59134184276017
C           -3.86738791142910       -4.62395990347629       -1.40872521674181
C           -3.06518440538792       -4.99312223013877       -2.47037161443570
C           -1.86774269957124       -4.32962988764780       -2.72720848466267
C           -1.43145350221819       -3.29065847844899       -1.92640142350865
C           -2.22376115671514       -2.92892709712406       -0.84743882554387
C           -1.33480806097185        0.41559927099388        0.00032215131995
C           -2.72128704937651        0.89376546682971       -0.07482618765346
N           -3.60530434897491        0.13333615210084       -0.70498733988779
C           -4.87691804057450        0.50521207219798       -0.58291283333633
C           -5.88928166247174       -0.41106117963781       -1.09975275953424
C           -5.52125548303728       -1.43592748940509       -1.96845405459423
C           -6.46727807508140       -2.34210361145759       -2.40469372769848
C           -7.78089436900105       -2.23555759489486       -1.97541681778467
C           -8.15177524299363       -1.21316548611363       -1.11550101179070
C           -7.21217182010940       -0.29971930672944       -0.67926434408237
N           -5.26576488183381        1.62179705983721        0.02146520403534
C           -4.29422854482162        2.40071023767385        0.48854265829805
C           -4.66037617320680        3.69747304359309        1.05400608093599
C           -5.98767727755077        4.12202184065987        1.02721247862062
C           -6.33057172045110        5.34986170918256        1.55862858332676
C           -5.35629356806624        6.16199052739551        2.11868996785467
C           -4.03475776375234        5.74397955544720        2.14737888046426
C           -3.68438663454784        4.51714120544682        1.61831919669264
N           -3.00748580207828        2.05553371086188        0.49783799254691
C           -0.30544155074812        1.34663364744067        0.04634790263488
C            1.02588977140848        0.95334198440380        0.04459357100137
N            2.03272575486270        1.92174205006879        0.10502708467093
C            2.22756918932167        2.92835505426625       -0.82179647188906
C            1.43709548605209        3.30449333265004       -1.89711469712088
C            1.88146157929455        4.34519020823548       -2.69125828518634
C            3.08500548478729        4.99635361770300       -2.43147756245265
C            3.88509821518344        4.61311224687912       -1.37324303149863
C            3.46000096805207        3.56971964879478       -0.56243107350959
C            4.03973337597937        2.90118909326307        0.56870130683898
C            5.23599172864470        3.04979551311841        1.25726016300664
C            5.49658538049948        2.20620249188368        2.31795722119869
C            4.56962116716072        1.24393713267017        2.71361957537612
C            3.37117889409152        1.08127220507551        2.04670194536717
C            3.12583195902740        1.89433098535700        0.94922053573446
N            3.00770507130081       -2.05083473187097        0.50027933726738
C            3.69729709388928       -4.49851276257199        1.64257957040055
C            4.05382443570527       -5.71875092960526        2.18267269722538
H            5.65273425119492       -7.08702187640661        2.57719019733136
H            7.37630285298660       -5.64691072884715        1.56210997423543
H            6.73612549164526       -3.45685395786662        0.58974058964641
H            4.47297271091805        1.50421991110175       -2.30842723792047
H            6.14977706194603        3.13257740388241       -3.11211205791742
H            8.49457630940710        2.95296425580327       -2.36017024965482
H            9.16435983276613        1.14463843217508       -0.82661905360583
H            7.47336597254067       -0.48427904364024       -0.02800546827257
H            0.55338007956307       -2.39838453648284        0.05956289541127
H           -2.67313621740538       -0.35815093865115        2.35352454596887
H           -4.80414492746255       -0.66220088290967        3.55185981433847
H           -6.42439469341180       -2.35605176042434        2.84166022109608
H           -5.93454636550397       -3.84905054214350        0.93201477982048
H           -4.80333089434710       -5.12650991002671       -1.21642695439250
H           -3.36934362331118       -5.80187100570526       -3.11839784407605
H           -1.26756423423552       -4.63154356612583       -3.57301286048385
H           -0.50941778021860       -2.77309359467559       -2.14449593445406
H           -4.49419399773529       -1.50770416184581       -2.28965653705695
H           -6.17811693826323       -3.13719474052889       -3.07593967696419
H           -8.51833046090773       -2.95012918773967       -2.31155886055655
H           -9.17661700622304       -1.13303135437456       -0.78353070293529
H           -7.47846393029189        0.49681113261635       -0.00212456962403
H           -6.73009006168250        3.47683229833648        0.58426613812099
H           -7.35927531626260        5.67853761337327        1.53713688417302
H           -5.62736051902017        7.12203089695098        2.53320101004649
H           -3.27770625055855        6.37852329014969        2.58437908865523
H           -2.66177573934363        4.17398415935258        1.63447725633576
H           -0.55913075536696        2.39520741547507        0.07857795646864
H            0.51022165586902        2.79665117668326       -2.11750277214190
H            1.28281411355784        4.65828546860353       -3.53408274681650
H            3.39559980203578        5.80668872495128       -3.07446125147860
H            4.82572968249470        5.10596802480389       -1.17875668868305
H            5.94831923227684        3.80428927596847        0.95947801716527
H            6.42785586128839        2.29315565233378        2.85752171350113
H            4.79371688776248        0.60862394191848        3.55810319101775
H            2.65806208369862        0.33256419711690        2.36143513075898
H            2.67350186491794       -4.15886563021248        1.65838799338280
H            3.30044419573585       -6.35185221567297        2.62802979801145
