  50
  -79.3362491600000       0.500005290970886      !
 C          5.2959566046        2.7368001821       -1.3085687738
 C          3.9403101387        2.9856566400       -1.5137010059
 C          2.9739210471        2.0723912073       -1.1384500877
 C          3.3946319314        0.8934079905       -0.5393692866
 C          4.7693716808        0.6225275154       -0.3470316346
 C          5.7218952554        1.5565785717       -0.7330408731
 C          4.8478533844       -0.6818182819        0.2479351889
 C          5.9036150925       -1.4753480062        0.6772385357
 C          5.6217431987       -2.7040765730        1.2396859056
 C          4.3063194699       -3.1387242576        1.3896396853
 C          3.2393624619       -2.3679836196        0.9700415294
 C          3.5171745196       -1.1416454321        0.3827720559
 N          2.6513170697       -0.1807268970       -0.0959757528
 C          1.2520956877       -0.2811619946       -0.1371698336
 C          0.6607597483       -1.4065541714       -0.7157366227
 C         -0.7139357046       -1.5460906340       -0.7745711418
 C         -1.4997461216       -0.5327315415       -0.2572449698
 C         -0.9062660731        0.6303425808        0.3323674122
 C          0.4709736527        0.7405920496        0.3930897917
 C         -1.9841429086        1.4967759723        0.7771511858
 C         -2.2546144726        2.7133371908        1.3970915367
 C         -3.5905672481        3.0756343948        1.5853186986
 C         -4.6954088823        2.3108495326        1.1998194291
 C         -4.4659481725        1.0882461433        0.5767631849
 C         -5.1293835142       -0.0655110679       -0.0081541940
 C         -6.4619741021       -0.4038795210       -0.1747548985
 C         -6.7776295840       -1.6057613883       -0.7851050423
 C         -5.7830559090       -2.4682924189       -1.2288295590
 C         -4.4408834470       -2.1597507516       -1.0772570677
 C         -4.1138836376       -0.9629625100       -0.4687379447
 N         -2.8760854389       -0.4039593276       -0.1880567243
 C         -3.1210289183        0.7876439686        0.4190730321
 H          6.0202178469        3.4775072104       -1.6134432074
 H          3.6383522216        3.9122533809       -1.9793817310
 H          1.9269365875        2.2671481581       -1.3159954980
 H          6.7729428205        1.3574833934       -0.5871795316
 H          6.9221528679       -1.1324074093        0.5741411752
 H          6.4282746766       -3.3379356674        1.5771211023
 H          4.1165456065       -4.0985471293        1.8471432568
 H          2.2228220233       -2.7051841911        1.1061293846
 H          1.2963846503       -2.1723470179       -1.1336021744
 H         -1.1568215567       -2.4214430153       -1.2234108463
 H          0.9366028923        1.5979760847        0.8543190272
 H         -1.4680028695        3.3730669386        1.7307110133
 H         -3.7856466419        4.0230095057        2.0677606333
 H         -5.6925056577        2.6780244487        1.3898751143
 H         -7.2389981307        0.2627114886        0.1680410377
 H         -7.8132751162       -1.8794827827       -0.9198151424
 H         -6.0598775511       -3.3987526488       -1.7015998176
 H         -3.6747117756       -2.8355077781       -1.4250690746
  50
  -79.3362491400000       0.499994709029114      !
 C          5.5587618306        2.8415626171       -1.2298006606
 C          4.2347989250        3.2594235039       -1.3481755189
 C          3.1862872219        2.4605243848       -0.9349659173
 C          3.4916890040        1.2229122441       -0.3863228291
 C          4.8311672795        0.7808343536       -0.2833453997
 C          5.8679157860        1.6022941699       -0.7062621982
 C          4.7820336483       -0.5397846143        0.2776717883
 C          5.7545964501       -1.4682661346        0.6250493538
 C          5.3559044962       -2.6691859863        1.1766162440
 C          4.0076961616       -2.9445361602        1.3958950846
 C          3.0216933046       -2.0377462641        1.0581803601
 C          3.4148788849       -0.8375215997        0.4830491658
 N          2.6482362598        0.2357735392        0.0789454678
 C          1.2478040312        0.3082732352        0.1356646339
 C          0.6391967682        1.4049027156        0.7502799210
 C         -0.7375360533        1.5147272761        0.8244892690
 C         -1.5077100670        0.5005114391        0.2857656861
 C         -0.8960758784       -0.6334203899       -0.3408533009
 C          0.4823965346       -0.7139108148       -0.4162485808
 C         -1.9597986185       -1.5099371354       -0.7993652854
 C         -2.2104748595       -2.7160148621       -1.4474004572
 C         -3.5401967130       -3.1025889735       -1.6312189468
 C         -4.6569826136       -2.3727320733       -1.2138152164
 C         -4.4472701140       -1.1615882009       -0.5620712557
 C         -5.1291210321       -0.0398098133        0.0623471862
 C         -6.4668466035        0.2620856560        0.2555710181
 C         -6.8021569070        1.4385841534        0.9036926256
 C         -5.8219790392        2.3120850018        1.3578214735
 C         -4.4751718494        2.0397166306        1.1803997774
 C         -4.1284990529        0.8678512653        0.5353356107
 N         -2.8818502426        0.3451558849        0.2247958193
 C         -3.1076398495       -0.8346330469       -0.4122313081
 H          6.3501602435        3.4964576296       -1.5628144609
 H          4.0235565883        4.2280923738       -1.7767133906
 H          2.1627454219        2.7857806853       -1.0456676258
 H          6.8927858359        1.2725635072       -0.6279992341
 H          6.8000045142       -1.2489142166        0.4686041842
 H          6.0959847386       -3.4051483423        1.4530699550
 H          3.7274047385       -3.8871057555        1.8426349549
 H          1.9807139971       -2.2533057528        1.2465957975
 H          1.2628774925        2.1715637645        1.1842209198
 H         -1.1937522994        2.3681789048        1.3012814201
 H          0.9609684305       -1.5490342300       -0.9043005265
 H         -1.4133305806       -3.3495951275       -1.8057598949
 H         -3.7199531751       -4.0415853793       -2.1354846528
 H         -5.6479314821       -2.7571397169       -1.4020649941
 H         -7.2325925185       -0.4131649311       -0.0955409821
 H         -7.8420310924        1.6838706345        1.0593900423
 H         -6.1140067559        3.2224318860        1.8596830998
 H         -3.7204464674        2.7236951735        1.5370294235
