  62
        -95.13381558
 C         -7.8215574033       -2.9414980076        0.1516496226
 C         -6.7197502131       -3.0816621991       -0.6802831072
 C         -5.7471440821       -2.1038247706       -0.7231353553
 C         -5.8666918302       -0.9648093925        0.0762096745
 N         -4.8853062106        0.0274091996        0.0376895998
 C         -5.1224850946        1.3864955810       -0.1043023685
 C         -6.3232625256        2.0600043853       -0.2679424976
 C         -6.2761303467        3.4369157467       -0.4251618430
 C         -5.0703941000        4.1246531169       -0.4303568904
 C         -3.8649031881        3.4498289255       -0.2977142631
 C         -3.8887186656        2.0755096372       -0.1409655691
 C         -2.8534366929        1.0768023318       -0.0103820707
 C         -1.4916749620        1.1539823313        0.0333870440
 C         -0.7019110319       -0.0391458778        0.1738008356
 C          0.7046127469        0.0011590407        0.1874806762
 C          1.4247626057        1.2437118753        0.3513329249
 C          2.7823531360        1.3308723511        0.3277426331
 C          3.5300500367        0.1597881967        0.1139227466
 C          2.8641473480       -1.0995054811        0.0075283509
 C          1.5025706815       -1.1868901354        0.0483216420
 C          3.9092449153       -2.0874950750       -0.1301922682
 C          3.8992543057       -3.4612991653       -0.2935054792
 C          5.1110842548       -4.1231063211       -0.4354973219
 C          6.3098883166       -3.4233583873       -0.4332081623
 C          6.3435741113       -2.0468151136       -0.2691987885
 C          5.1367613364       -1.3866177854       -0.0960092724
 N          4.8870064645       -0.0307887854        0.0540383099
 C          5.8544143149        0.9753115419        0.0802539802
 C          6.9753357951        0.8572954852        0.9055124132
 C          7.9264110553        1.8570593719        0.9235837861
 C          7.7757098928        2.9856631893        0.1305845794
 C          6.6599722642        3.1077160894       -0.6857485622
 C          5.7041184251        2.1132778312       -0.7159259598
 C         -1.4308189103       -1.2793698739        0.3115121472
 C         -2.7894775458       -1.3563941168        0.2848989736
 C         -3.5298274862       -0.1771943324        0.0901399733
 C         -6.9733734274       -0.8288614231        0.9176850227
 C         -7.9414031723       -1.8117937366        0.9482670753
 H         -8.5808116151       -3.7079576847        0.1800944066
 H         -6.6246035839       -3.9569006504       -1.3058437185
 H         -4.9024444823       -2.1971006114       -1.3891620780
 H         -7.2656639198        1.5346653749       -0.2883338864
 H         -7.1993040611        3.9830641756       -0.5503055411
 H         -5.0716098551        5.1975035613       -0.5520921356
 H         -2.9269164116        3.9834990497       -0.3228696049
 H         -1.0155527726        2.1142493640       -0.0713213717
 H          0.8634875191        2.1408055954        0.5531312477
 H          3.2790225345        2.2757104304        0.4928974775
 H          1.0326102658       -2.1500798750       -0.0590467029
 H          2.9669006364       -4.0048694843       -0.3164340470
 H          5.1226845468       -5.1952863979       -0.5625809921
 H          7.2379937238       -3.9592683214       -0.5661952872
 H          7.2803093865       -1.5114489922       -0.2919649484
 H          7.0752965410       -0.0062219972        1.5458807637
 H          8.7881447883        1.7620682453        1.5679292406
 H          8.5218914873        3.7653204944        0.1495022221
 H          6.5404119520        3.9820412033       -1.3084682640
 H          4.8483008816        2.1925910210       -1.3696182307
 H         -0.8760709089       -2.1845528903        0.4949980294
 H         -3.2921328303       -2.3009817558        0.4323324836
 H         -7.0491268257        0.0356699805        1.5600833238
 H         -8.7919932366       -1.7027274192        1.6049405245
