62
 energy: -95.136868092211 gnorm: 0.000045089098 xtb: 6.7.1 (edcfbbe)
C           -7.77628887762790       -3.01635493286081        0.22920892438946
C           -6.68697086674845       -3.14235838788584       -0.62036084546192
C           -5.73180514739814       -2.14801015441477       -0.68415457555437
C           -5.85641138573175       -1.00853320767719        0.11256986792021
N           -4.88962045248072       -0.00239215722215        0.05577765054567
C           -5.14416031544101        1.35293363847608       -0.08422049783555
C           -6.35467576950389        2.01259850782378       -0.23294169775431
C           -6.32571919449155        3.38879950277869       -0.39164727271411
C           -5.12765751603608        4.09095248825371       -0.41319561191037
C           -3.91359955484891        3.43037173175418       -0.29537467593251
C           -3.91886394647500        2.05632780552566       -0.13673798029119
C           -2.86950097252993        1.06962155106085       -0.01794225812992
C           -1.50849126691048        1.16375480008443        0.01096314786404
C           -0.70120284887303       -0.02510425713784        0.14178741552643
C            0.70123029862376        0.02485235525373        0.14152044985245
C            1.41870542623740        1.27217336297144        0.28925477661951
C            2.77495690282842        1.36286507544690        0.27926487952989
C            3.53014714669043        0.18985415567859        0.08971163354228
C            2.86945592046079       -1.06997321059603       -0.01851342026702
C            1.50845509420655       -1.16406498284939        0.01083795515842
C            3.91875710496087       -2.05674339860282       -0.13726280188113
C            3.91339980046417       -3.43085059290639       -0.29536399806408
C            5.12740407590839       -4.09151525482399       -0.41325569832705
C            6.32549168405927       -3.38938973754467       -0.39231891001019
C            6.35453831307041       -2.01312508290412       -0.23417929793333
C            5.14408530515000       -1.35336352135193       -0.08537076984636
N            4.88962129511747        0.00201808576726        0.05419718806156
C            5.85642840283006        1.00817030953018        0.11029650450458
C            6.95084042196241        0.88644932111371        0.96848499222617
C            7.90246041623826        1.88510930266403        1.01858943622134
C            7.77632999658158        3.01605149891745        0.22556635677773
C            6.68670938921474        3.14175101242931       -0.62366233737180
C            5.73153543395808        2.14737156211320       -0.68678045004263
C           -1.41860621187322       -1.27238546683111        0.29021708779554
C           -2.77485917685958       -1.36311151139599        0.28068431848552
C           -3.53013602543708       -0.19018281196251        0.09093674973184
C           -6.95051548834803       -0.88650806800839        0.97110652136871
C           -7.90212860749287       -1.88514392595234        1.02189269174032
H           -8.52176362043851       -3.79544505332305        0.27427027706091
H           -6.58702670963428       -4.01918014982140       -1.24301657455341
H           -4.89661285004568       -2.23089973419815       -1.36340253422256
H           -7.29096521792496        1.47585648288590       -0.24046070619490
H           -7.25666591306524        3.92442297409840       -0.50523094647277
H           -5.14337154954315        5.16361426496246       -0.53559256147266
H           -2.98236342277784        3.97490212529752       -0.33325224181631
H           -1.04389349490451        2.12910865681556       -0.09684036464772
H            0.85306888422997        2.17142427916999        0.46863775570305
H            3.26713907459925        2.31150666977401        0.43579053715435
H            1.04380782876510       -2.12944541079461       -0.09651544827379
H            2.98213427392681       -3.97535949600541       -0.33276742263938
H            5.14305077905412       -5.16422604227733       -0.53523149190936
H            7.25638940601591       -3.92508719419160       -0.50595515470474
H            7.29084369519275       -1.47642175239521       -0.24218386182742
H            7.03113033170030        0.02015103704422        1.60791166039730
H            8.74437140915244        1.78662263962379        1.68797524839076
H            8.52181397079329        3.79516027677848        0.27009390585524
H            6.58653455684964        4.01836150403280       -1.24657688094799
H            4.89610797597766        2.23001297617200       -1.36576732604156
H           -0.85289418150418       -2.17155494753206        0.46979291145337
H           -3.26697611793670       -2.31170410170404        0.43771998360272
H           -7.03057502237629       -0.01998350366249        1.61025837984455
H           -8.74378843138815       -1.78642769240041        1.69156237996605
