62
 energy: -95.237863234676 gnorm: 0.000057037756 xtb: 6.7.1 (edcfbbe)
C           -7.78251275572073       -2.79889227247536        1.07204876101652
C           -6.74289529129000       -3.14289853535353        0.22405089684215
C           -5.78209556153472       -2.20915003421759       -0.11652953791057
C           -5.85118533303908       -0.91931054504233        0.40251210920830
N           -4.87598576647675        0.02867655455914        0.06476347864754
C           -5.11582178593892        1.30690873786086       -0.39966488710868
C           -6.32092196400352        1.93348442239751       -0.68299033314208
C           -6.27755161609660        3.22587657977900       -1.16997473492360
C           -5.06800724545995        3.88387316921315       -1.38142113223272
C           -3.86514192653581        3.25705309813674       -1.12458990536458
C           -3.88284083649124        1.95806435098764       -0.63480257203639
C           -2.85271031005832        1.01997925123822       -0.28537346529599
C           -1.46795544569740        1.08576406068110       -0.28549366438083
C           -0.73551850225810       -0.01636693477622        0.13559613701790
C            0.73477260206213        0.02019085260910        0.13509853722199
C            1.40774236511994        1.17052407570831        0.56962220212945
C            2.78462338025668        1.25521733569408        0.58298898486353
C            3.50922810681330        0.16009732101018        0.13452943563102
C            2.85112944287271       -1.01784549082580       -0.28595799735739
C            1.46637098170182       -1.08265263240337       -0.28561100656891
C            3.88036951236036       -1.95698625248025       -0.63507964791281
C            3.86148431619927       -3.25616201700079       -1.12435869103631
C            5.06377645298183       -3.88407451819253       -1.38111359014666
C            6.27391378914914       -3.22699587149901       -1.17008175824104
C            6.31844075333815       -1.93446333096855       -0.68362892133138
C            5.11388806365297       -1.30677060568598       -0.40038392317190
N            4.87521818679896       -0.02804849978444        0.06329905562237
C            5.85194508634387        0.91836983692762        0.40109679472328
C            6.89326557415580        0.57421444101094        1.25839044647709
C            7.85787796235411        1.50964184099782        1.58337236863905
C            7.78806940701806        2.79360571600700        1.06875921038572
C            6.74916365709400        3.13956377784157        0.22070817106595
C            5.78589592593184        2.20796345808402       -0.11887645324143
C           -1.40759559772513       -1.16676936498410        0.57138253558627
C           -2.78436825784606       -1.25241407722383        0.58522693987116
C           -3.50981487626686       -0.15820784913247        0.13591025427440
C           -6.89346025078969       -0.57698130126740        1.25935478260546
C           -7.85568086979805       -1.51457721330481        1.58527244366278
H           -8.53337361346503       -3.52958427917352        1.33226922808597
H           -6.68421310644623       -4.14203015980828       -0.18191002311574
H           -4.98289691537499       -2.46696674020422       -0.79530202526788
H           -7.26327606910862        1.42623104195476       -0.54026403108788
H           -7.20265042896754        3.73591774197672       -1.39532482102248
H           -5.07668583692476        4.89495167531086       -1.76078560615673
H           -2.92696478001887        3.76026362116656       -1.30427948699089
H           -0.96670124464663        1.97905287766221       -0.62662554375072
H            0.82699959113895        2.00737673835429        0.92878417462270
H            3.27938301093579        2.14349166837362        0.94647995402174
H            0.96442780100783       -1.97582660540679       -0.62602459378398
H            2.92282169957211       -3.75859277805228       -1.30369512787748
H            5.07161338348042       -4.89530977100915       -1.76007591307190
H            7.19854582812804       -3.73792565500931       -1.39532802885662
H            7.26120879643954       -1.42788571988067       -0.54121848804093
H            6.93168151641222       -0.42090775926109        1.67583552559010
H            8.66356952076186        1.23682307516592        2.24889964584079
H            8.54106384247772        3.52243475958426        1.32804165779939
H            6.69300746185437        4.13844175581262       -0.18622156346691
H            4.98720928671557        2.46718452749013       -0.79771985974880
H           -0.82616498053493       -2.00289161261198        0.93111864735472
H           -3.27840392915424       -2.14070870807352        0.94963800550651
H           -6.93444193430908        0.41840499110588        1.67591761262861
H           -8.66203903786571       -1.24312365465876        2.25054428446742
