62
 energy: -95.237808114013 gnorm: 0.000065062443 xtb: 6.7.1 (edcfbbe)
C           -7.87374505068580       -2.81336812596329       -0.98724465473748
C           -7.90010090446421       -1.51037857972155       -1.45611039150020
C           -6.90601586780106       -0.61951140047093       -1.09689697098445
C           -5.87842890204901       -1.02784974116908       -0.25111095217493
N           -4.87110717435357       -0.12626545505446        0.11781282630888
C           -5.06839305801040        1.14669774652463        0.61566258628414
C           -6.25178899117363        1.80038023304480        0.92789835355024
C           -6.16551496341399        3.07691471628976        1.44972339901565
C           -4.93503604636863        3.69301840067285        1.66677845304094
C           -3.75370860588192        3.03882087170145        1.38008347673826
C           -3.81467744807930        1.75487453074183        0.85527784909625
C           -2.81626554469309        0.79578649536192        0.47262006191418
C           -1.43035451886442        0.82169836512045        0.45856940731751
C           -0.73546743693372       -0.29337756862720        0.00969320377242
C            0.73547101913051       -0.29338749083942       -0.00969162506471
C            1.44387769649847       -1.41608830110669        0.43903438633304
C            2.82296498860714       -1.45953195351922        0.44471045849470
C            3.51168967663242       -0.35283210934653       -0.03095858284724
C            2.81628285267361        0.79574499308902       -0.47263060359267
C            1.43037223583437        0.82167573890946       -0.45857735180743
C            3.81470685158424        1.75481856706206       -0.85529246859750
C            3.75375271677445        3.03876371045066       -1.38010243775139
C            4.93508774050579        3.69294699435585       -1.66679842032586
C            6.16555928819189        3.07683018741247       -1.44973894217060
C            6.25181862631103        1.80029599750167       -0.92791041762571
C            5.06841506731869        1.14662694552479       -0.61567536263341
N            4.87111292982433       -0.12633222731275       -0.11782175186620
C            5.87841819803663       -1.02793193013997        0.25110962598908
C            5.85659020393058       -2.33623502705636       -0.22372845967508
C            6.84920682970016       -3.22295600250883        0.15004767513388
C            7.87368530472624       -2.81349211106296        0.98727502456226
C            7.90006761751271       -1.51049958139720        1.45613097405480
C            6.90600752000458       -0.61961107435277        1.09690101371233
C           -1.44388827036210       -1.41607205300058       -0.43902616932066
C           -2.82297614000071       -1.45949663884170       -0.44470614368801
C           -3.51168693920340       -0.35278415489562        0.03095355364549
C           -5.85662517418984       -2.33615074865992        0.22373368215813
C           -6.84926626288918       -3.22285097943597       -0.15002698267393
H           -8.64931765494130       -3.50756691444961       -1.27360008287043
H           -8.69457621873735       -1.18774504616563       -2.11278008479839
H           -6.91050322045381        0.39052056534590       -1.47879365784810
H           -7.20997256517239        1.32488766244118        0.78107402034858
H           -7.07289629695997        3.60726078210580        1.69897299009356
H           -4.91023962066898        4.69269251253560        2.07456206099857
H           -2.79932848799634        3.50883749607411        1.56411425212384
H           -0.89805352564055        1.69299189121479        0.80947252226758
H            0.88964978633233       -2.26328764742270        0.81581724303479
H            3.34602234922914       -2.32545165747390        0.82219029470242
H            0.89808250150784        1.69297497605111       -0.80948332853923
H            2.79937769321351        3.50878876273007       -1.56413824407912
H            4.91030296564206        4.69261939015375       -2.07458701153591
H            7.07294688251049        3.60716639340738       -1.69898674760105
H            7.20999709297020        1.32479456943590       -0.78108144287253
H            5.06900076635085       -2.64545497200684       -0.89454814405508
H            6.82712261386219       -4.23689373287518       -0.22139798446597
H            8.64923886509045       -3.50770709137739        1.27364282822585
H            8.69454479842585       -1.18787989373396        2.11280518295318
H            6.91051487296512        0.39042333538271        1.47879092727965
H           -0.88967077103907       -2.26328126350077       -0.81580219530642
H           -3.34604435021593       -2.32541144635196       -0.82218215107746
H           -5.06903633585689       -2.64538470514141        0.89454756888110
H           -6.82720120480827       -4.23678720567912        0.22142386205812
