  88
       -137.53596430
 C          4.9303372944       -0.4461189901        2.5119562655
 C          4.5724804349       -1.1915400974        3.6232967268
 N          3.3855622520       -1.1032657591        4.1990934664
 C          2.4963216303       -0.2821423113        3.6742559949
 C          2.7291047387        0.4987612996        2.5454568535
 C          1.6668090480        1.3894404139        1.9663218771
 C          0.4379172700        0.5828756336        1.5513433162
 C          0.7517065333       -0.6213345044        0.5807870620
 N          1.0275003712       -1.7971676543        1.3375709741
 C          2.2140180906       -2.2432819587        0.9655153521
 C          2.9349501490       -3.3552889379        1.4309103322
 C          4.1621519502       -3.6092138949        0.8669234493
 C          4.6944031495       -2.8013563037       -0.1463497530
 C          4.0126064375       -1.6955104098       -0.6278213385
 C          2.7819870693       -1.4171356712       -0.0672853857
 N          1.8998928924       -0.4152338010       -0.2747623022
 N         -0.6464621691        1.3325715782        0.9533900495
 C         -0.3660038718        2.6165276400        0.3264076607
 C         -1.6479831957        3.3089673995       -0.1792000689
 C         -2.7920892098        3.2439703254        0.7869550931
 C         -2.6377300223        3.4945456355        2.1463199498
 C         -3.7398617688        3.4104610197        2.9802181051
 C         -4.9671749858        3.0796985979        2.4243019469
 N         -5.1326201446        2.8541367074        1.1328012041
 C         -4.0761642810        2.9372010291        0.3454024160
 C          0.6366993529        2.6403897845       -0.7910177709
 N          1.6283195821        3.4924586605       -0.8141638883
 C          2.2959320440        3.2516456008       -1.9881261272
 C          3.4320685170        3.8449806758       -2.5276558593
 C          3.8929179075        3.3611853535       -3.7338292812
 C          3.2541035489        2.3123876621       -4.4004689847
 C          2.1232953980        1.7114333852       -3.8859689279
 C          1.6498953068        2.1963169182       -2.6772113296
 N          0.5770291914        1.8457031585       -1.8968194198
 C         -1.5158910521        0.3705265418        0.3345173379
 C         -2.5493996101       -0.1644515598        1.3436864338
 C         -3.5330484289       -1.1114350972        0.7242337141
 C         -4.2743043417       -0.7754066375       -0.4035789695
 C         -5.1407042929       -1.7059941628       -0.9508740042
 C         -5.2481308766       -2.9463488373       -0.3419734796
 N         -4.5766217092       -3.2704331618        0.7499709596
 C         -3.7517033305       -2.3778961259        1.2623229776
 C         -0.5904985810       -0.7869465932       -0.2244272416
 N         -0.4689934709       -0.6061185535       -1.6324501516
 C         -0.9528460140       -1.6911193982       -2.2227220882
 C         -1.1043371551       -1.9714179100       -3.5885064779
 C         -1.6209242746       -3.1970040951       -3.9385536485
 C         -1.9904750379       -4.1472536136       -2.9773791812
 C         -1.8551394579       -3.9004203215       -1.6222977083
 C         -1.3409194135       -2.6730886959       -1.2486142975
 N         -1.1412120519       -2.1085605314       -0.0373666176
 C          3.9892203297        0.4115360160        1.9672206690
 H          5.9138274971       -0.5375777425        2.0782730291
 H          5.2642770016       -1.8847452183        4.0825430204
 H          1.5447491743       -0.2447795732        4.1888215515
 H          1.3504457608        2.1113691727        2.7239795091
 H          2.0793593364        1.9374869878        1.1197372564
 H          0.0338828395        0.0947092331        2.4468769132
 H          2.5258699032       -3.9723940906        2.2134851617
 H          4.7383732851       -4.4556398141        1.2096482989
 H          5.6606430057       -3.0472563061       -0.5600809717
 H          4.4262578836       -1.0719296712       -1.4062462451
 H          1.9159542766        0.2272843650       -1.0462197193
 H          0.0629432330        3.2459542621        1.1131294071
 H         -1.9548024275        2.8847620159       -1.1369989621
 H         -1.3879336963        4.3554477664       -0.3609954737
 H         -1.6691738249        3.7508986380        2.5469868404
 H         -3.6492328383        3.5983172672        4.0387247340
 H         -5.8574606653        2.9942559175        3.0322989483
 H         -4.2690810735        2.7546561858       -0.7053670539
 H          3.9271799956        4.6527740202       -2.0129837891
 H          4.7730503962        3.8001481686       -4.1798564872
 H          3.6571906298        1.9661386979       -5.3405099892
 H          1.6275749681        0.8991547593       -4.3961810230
 H          0.0105726504        0.9877499296       -2.0034168214
 H         -2.0492535139        0.8142574684       -0.5061602289
 H         -3.0835729861        0.7010413675        1.7410551825
 H         -2.0378932821       -0.6572784178        2.1697050144
 H         -4.1816204452        0.2043995717       -0.8473355544
 H         -5.7221847763       -1.4717554619       -1.8287849353
 H         -5.9025572938       -3.7127885830       -0.7343729424
 H         -3.2286810890       -2.6920135745        2.1580906329
 H         -0.8196379962       -1.2416637624       -4.3296949819
 H         -1.7469554442       -3.4398100864       -4.9831615891
 H         -2.3916871348       -5.0939352540       -3.3049106955
 H         -2.1481722208       -4.6278009487       -0.8819887730
 H         -0.9631973522       -2.6045459691        0.8213900197
 H          4.2294254429        1.0096746262        1.0990850838
