80
 energy: -116.705322100578 gnorm: 0.000036310427 xtb: 6.7.1 (edcfbbe)
C           -5.89186256882057       -0.00017286884010        3.06753173970913
C           -6.12993377918201       -0.00006682713598        1.54552711205689
C           -7.64071891171675       -0.00003226508693        1.24469846822921
C           -5.51623679362443        1.25703435059603        0.95656732927000
C           -5.96139480390757        2.50056147732469        1.38368956823269
C           -5.44081916147746        3.68039981565699        0.88346206088794
C           -4.44334178208110        3.62640682722663       -0.07363569275346
C           -3.98262700346564        2.40436602876686       -0.51641226458101
C           -4.50748143316059        1.20999369621954       -0.01261454438372
N           -4.02237190741474        0.00005007271426       -0.47847926610298
C           -3.01224079067968        0.00010928784686       -1.48556816333107
C           -3.39630847862356        0.00017141347801       -2.83122202987746
C           -2.45877984770225        0.00023307233652       -3.84426884914285
C           -1.11802272303200        0.00022892318974       -3.48561005015268
N           -0.00002111662713        0.00027684595863       -4.27838011571983
C            1.11798622219848        0.00023860423023       -3.48561813692243
C            2.45874070139153        0.00025360074578       -3.84428673675398
C            3.39627661952098        0.00018883630614       -2.83124672672399
C            3.01221890039779        0.00011321738650       -1.48559002671184
N            4.02235873639770        0.00002992621960       -0.47850982614038
C            4.50743828398113       -1.20998172702834       -0.01279019747721
C            3.98253308161803       -2.40428149198488       -0.51670664639302
C            4.44322827233442       -3.62638615949155       -0.07408623104331
C            5.44073521929545       -3.68051787010296        0.88297253458214
C            5.96135552752019       -2.50075180682903        1.38332364681711
C            5.51621833736920       -1.25716299686795        0.95635950795558
C            6.12995501500420       -0.00014756710932        1.54546069065724
C            7.64073335886480       -0.00017500668151        1.24459913561938
C            5.89191657136100       -0.00022794948574        3.06747060585549
C            5.51629616317598        1.25697123306098        0.95649880636845
C            5.96151665226881        2.50048560568888        1.38359286313016
C            5.44097554638653        3.68033868031893        0.88336422053585
C            4.44346692198893        3.62637424269456       -0.07370259994377
C            3.98269262197373        2.40434654399094       -0.51645357859702
C            4.50751764471596        1.20995944929141       -0.01266032857789
C            1.67591156862942        0.00010585575352       -1.12142952146341
C            0.71822545870494        0.00016794833092       -2.12677172848913
C           -0.71825199872205        0.00016400016044       -2.12676657611743
C           -1.67593079619500        0.00010475298245       -1.12141750521293
C           -4.50748566905472       -1.20994746038864       -0.01275918680136
C           -3.98262915340596       -2.40426205102066       -0.51669123048849
C           -4.44337158107119       -3.62635359524724       -0.07408363646853
C           -5.44087784683578       -3.68045679258882        0.88297749831370
C           -5.96144465088977       -2.50067594195666        1.38334942305549
C           -5.51625733608997       -1.25709991166331        0.95640066310440
H           -4.82304884635631       -0.00018348245065        3.27571415039100
H           -6.33077087165606       -0.88065145713352        3.52883750898259
H           -6.33077852965775        0.88023677396687        3.52896146465981
H           -8.11951725750924        0.88042328622708        1.66438600435273
H           -7.80489555989381        0.00003045445705        0.16826662553715
H           -8.11953767798470       -0.88052356265847        1.66428738474211
H           -6.73923428351323        2.55794589596570        2.13043720679215
H           -5.81113740658467        4.63047696842296        1.23895294294286
H           -4.02155227630359        4.53524112010692       -0.47801394221940
H           -3.20460168929734        2.36787691381098       -1.26334198790922
H           -4.45015133720690        0.00017146674031       -3.06713780667212
H           -2.76102238318350        0.00028040394818       -4.88039119613159
H           -0.00002472332874        0.00032258455223       -5.28487283805548
H            2.76097575550573        0.00030708404992       -4.88041124159435
H            4.45011777486876        0.00019191649146       -3.06717012541928
H            3.20448405676200       -2.36768510553376       -1.26360592011261
H            4.02140671268812       -4.53516237539353       -0.47856096685163
H            5.81104027499057       -4.63064653387905        1.23833918616302
H            6.73921272784635       -2.55824429462178        2.13004447569721
H            8.11958378124717        0.88023746543093        1.66431695600833
H            7.80488663898220       -0.00007145244508        0.16816364840737
H            8.11951757751275       -0.88070960893617        1.66413677372990
H            6.33084680784603       -0.88069199267404        3.52878300411179
H            4.82310732997594       -0.00024852558248        3.27567570526587
H            6.33083040373366        0.88019608444956        3.52887538039651
H            6.73937642705342        2.55784787994666        2.13032114430456
H            5.81134031226608        4.63040533854274        1.23883489711081
H            4.02169994023173        4.53522075892343       -0.47807700168845
H            3.20464497168194        2.36787863622697       -1.26336130463717
H            1.39464957596873        0.00004937612125       -0.07937359099312
H           -1.39466131405314        0.00005506283308       -0.07936360581311
H           -3.20458034470293       -2.36768676414552       -1.26359199937712
H           -4.02158178116288       -4.53514201525363       -0.47856418678655
H           -5.81121564630982       -4.63057494431917        1.23833819048477
H           -6.73929743178524       -2.55814637515655        2.13007658617262
