80
 energy: -116.603100797358 gnorm: 0.000072778973 xtb: 6.7.1 (edcfbbe)
C           -6.01014526192308        2.15245903511362        2.45946710484937
C           -6.15296671208629        1.36334470939965        1.14315541589886
C           -7.58519520457162        1.50529984393749        0.59159796870469
C           -5.18789773845587        1.92988457516976        0.12312834502920
C           -5.29418340329369        3.26250843790749       -0.25173896644913
C           -4.46879157464126        3.82481247744482       -1.20842085005938
C           -3.52215005395797        3.03147132202795       -1.83963483574161
C           -3.39611293395613        1.70563390171520       -1.49115257063029
C           -4.19888556312632        1.14130628023770       -0.48806280735339
N           -4.03381669694284       -0.18624316823144       -0.14492647159175
C           -3.02530915345613       -0.95011795740042       -0.79502694129387
C           -3.41607641432198       -1.96774688178180       -1.66586125838553
C           -2.44434741998158       -2.73297657581246       -2.33943372264209
C           -1.12178905640552       -2.45521545573636       -2.08929717348872
N            0.00627313492760       -3.04510192773896       -2.60649105037894
C            1.13086052731573       -2.44865116381552       -2.08956728121857
C            2.45503242976734       -2.71855441858349       -2.33999182366819
C            3.42229143540432       -1.94851228429210       -1.66567182465583
C            3.02578524591987       -0.93417138496683       -0.79336807730165
N            4.03023874789621       -0.16721813948878       -0.14092097326023
C            4.83294284913476       -0.77680140407926        0.80297938951091
C            4.57810058437486       -2.10541060645210        1.17547752210057
C            5.37670724830095       -2.75098610753663        2.09220525861394
C            6.44220952708509       -2.07966023068332        2.67416953156994
C            6.66803018967561       -0.75499345477618        2.34733782138284
C            5.87838449091474       -0.07747737115590        1.42786964268489
C            6.14469368292728        1.38671712627157        1.14978506894528
C            7.57471639796372        1.53853479524452        0.59514858881309
C            6.00148877621183        2.16841911567677        2.47048749151450
C            5.17410968201390        1.95345414487297        0.13516349421316
C            5.27259374878318        3.28852712191144       -0.23297833522907
C            4.44218576395131        3.85149173396379       -1.18493095439174
C            3.49857627918335        3.05634946830017       -1.81851821866735
C            3.38035127640970        1.72804587836515       -1.47680177044146
C            4.18785661020462        1.16282691707132       -0.47798571582796
C            1.68882359799407       -0.64706536692199       -0.53834853836034
C            0.70632322434088       -1.42269272396186       -1.18709276189726
C           -0.70309637603830       -1.42667480892152       -1.18715116556055
C           -1.69002559811039       -0.65564219448079       -0.53963056261015
C           -4.83181815974975       -0.79557990104047        0.80301758877227
C           -4.57067481193374       -2.12171666472566        1.17972086044414
C           -5.36389786201529       -2.76685594113120        2.10145157718021
C           -6.43013772780228       -2.09742872575311        2.68415866769910
C           -6.66262987125393       -0.77515945429132        2.35238592599422
C           -5.87870249204999       -0.09821022130728        1.42759765415153
H           -6.70304983171835        1.78224295654373        3.20936030329223
H           -6.21131264759281        3.20788952221690        2.30070688190758
H           -4.99753209147965        2.04866513743055        2.84545998427666
H           -8.31108613531194        1.11403051285169        1.29856968070706
H           -7.82340568750063        2.54727746123189        0.39843559438276
H           -7.67944025704162        0.95193175537050       -0.34118932858582
H           -6.04398092149115        3.88547042567354        0.21119205496144
H           -4.57458486189219        4.86634320290611       -1.47164315271881
H           -2.88700895609893        3.44442890975986       -2.60914744967538
H           -2.67122180730318        1.08748432202419       -1.99627544512858
H           -4.46521369960485       -2.14843383435519       -1.84004815353397
H           -2.74183348624419       -3.49867601274189       -3.04009254901162
H            0.00843829445557       -3.80995619521067       -3.26057952558021
H            2.75687458945020       -3.48200659679408       -3.04124046299015
H            4.47244876374946       -2.12309563563430       -1.83991096392335
H            3.74049600728960       -2.62361575370289        0.73653387034073
H            5.16468376408216       -3.77580741915921        2.35838671139049
H            7.07979440073772       -2.57828120949229        3.38834867440534
H            7.48431537136142       -0.23812856773409        2.82818905688469
H            7.80656913397627        2.58245099620576        0.40473033002342
H            7.66976862063745        0.98868539782864       -0.33963942405100
H            8.30451548002140        1.14909661715144        1.29909988901925
H            6.69949590963788        1.79898056442376        3.21601215669411
H            4.99097109547228        2.05611183039293        2.85960569328487
H            6.19524947030704        3.22590156849948        2.31627835390657
H            6.02017020930652        3.91299445666919        0.23152668423898
H            4.54189546428815        4.89494102558920       -1.44286264592139
H            2.85971695614392        3.47002513063980       -2.58455429729317
H            2.65784979430597        1.10869487634676       -1.98387605390420
H            1.41706831970511        0.13043187864552        0.15845028605147
H           -1.42286220157579        0.12464051291745        0.15582038753778
H           -3.73244036530172       -2.63828376172397        0.74002183489310
H           -5.14707908299310       -3.78982448547845        2.37089209543725
H           -7.06339647855350       -2.59570069028740        3.40243426526062
H           -7.47966071751949       -0.25972277692469        2.83351745889545
