80
 energy: -116.705383288876 gnorm: 0.000069549083 xtb: 6.7.1 (edcfbbe)
C           -5.94171475245136        0.48086621410062        3.26528531112408
C           -6.16168542928985        0.32776473349422        1.74823567285398
C           -7.66638966616768        0.37641538665695        1.42222111648040
C           -5.47240502315581        1.47803928020591        1.03710474078978
C           -5.85616835037137        2.78281417064453        1.31521268319196
C           -5.26915436768641        3.87079840039438        0.69479214229271
C           -4.26809448953223        3.65850051489681       -0.23616977126061
C           -3.86703688854257        2.37259409401881       -0.53168824759847
C           -4.45544804614287        1.27107300429891        0.09790776060162
N           -4.02593817640354       -0.00665824356625       -0.21727518951658
C           -3.01255564812807       -0.17264574297971       -1.20678592487955
C           -3.39315913535510       -0.37613256091073       -2.53786386905318
C           -2.45318796080665       -0.54360447623181       -3.53454819973299
C           -1.11347978923811       -0.50148657624240       -3.17455015930660
N            0.00619501614732       -0.63505350812673       -3.95344859620254
C            1.12232219307933       -0.52023039466761       -3.16658217557841
C            2.46366341470413       -0.58547375809260       -3.51698335125597
C            3.39919417678543       -0.43264020987050       -2.51380827893756
C            3.01267483485750       -0.21821910620225       -1.18614985288578
N            4.02206143879380       -0.06423427404469       -0.19031353638631
C            4.50585294255222       -1.18849187778407        0.45644580949191
C            3.97262740036793       -2.44456484992381        0.14995221891744
C            4.43041923975337       -3.58390349303843        0.77776562214597
C            5.43346102553548       -3.49162695812224        1.72607710231572
C            5.96286154085756       -2.25056254819514        2.03067579595479
C            5.52088549943252       -1.08760216096198        1.41489978967189
C            6.14421200010571        0.24318692544622        1.79445975360755
C            7.65298007494266        0.18709284268164        1.48871747468893
C            5.91502291896178        0.48470575829496        3.29846276623130
C            5.53309699592017        1.39487709150075        1.01731148595743
C            5.98882723295891        2.68740176104233        1.23806227585013
C            5.47200243931207        3.77617743806221        0.55929631035637
C            4.46736604274766        3.57740691861875       -0.37080364016905
C            3.99596403120105        2.30377313049610       -0.61048787940986
C            4.51739298974099        1.20115056690637        0.07393070601519
C            1.67581737943694       -0.15245458127761       -0.83020198770858
C            0.71973954508674       -0.30456364619544       -1.82571402745135
C           -0.71690586204454       -0.29333886892338       -1.83072318728658
C           -1.67741619905048       -0.12973306021581       -0.84135097928154
C           -4.58001498484739       -1.13040588767621        0.37134199995641
C           -4.10176952909635       -2.39819105273197        0.02473174329617
C           -4.63601520425843       -3.53794097186884        0.58805247929622
C           -5.66103718406615       -3.43423096271671        1.51138462796209
C           -6.13023664591981       -2.18110962681911        1.86184880350464
C           -5.60990026193383       -1.01735703896724        1.31240091745714
H           -4.87738706802994        0.43889836877959        3.49148312288697
H           -6.43979131792984       -0.31550484385528        3.81157954841835
H           -6.33020598241912        1.43172556986558        3.61966967020017
H           -8.10160791023439        1.32013013969763        1.73935179883858
H           -7.81711010895761        0.27213582310491        0.34888225593519
H           -8.19799215251309       -0.42829367480605        1.92259482853353
H           -6.63804645414877        2.96330811178125        2.03768209330184
H           -5.59221834142873        4.87253010960976        0.93625343837995
H           -3.79661280297267        4.49305864219511       -0.73471973136199
H           -3.08648909492046        2.21293024245120       -1.25980341427120
H           -4.44631578015103       -0.40212419686476       -2.77539751373215
H           -2.75280380814947       -0.70088232279482       -4.55940646959334
H            0.00837453538773       -0.78911557454977       -4.94808365948157
H            2.76783538366779       -0.74972381687800       -4.53940589724206
H            4.45345474538336       -0.47654531926292       -2.74359983050250
H            3.19003676441689       -2.52228619206907       -0.58913022148179
H            4.00163175436295       -4.54271465663447        0.52452665978515
H            5.80154947864943       -4.37578382162766        2.22504179843169
H            6.74523759484956       -2.19350131124941        2.77263137875123
H            8.13968931428074        1.11824705950236        1.76552537487993
H            7.80936418584853        0.02102288872953        0.42397719939252
H            8.13001509587150       -0.62173369424206        2.03539143488242
H            6.35940146659842       -0.31015438713066        3.89130697277717
H            4.84737837080332        0.51529470494053        3.51022441959394
H            6.35346387195574        1.42845435413327        3.61110210217623
H            6.77259407854766        2.85747532567466        1.96104214329722
H            5.85103690878966        4.76799984336978        0.75623601579126
H            4.04796017940104        4.41309292221072       -0.91215685335120
H            3.21191421034930        2.15472168501075       -1.33705999349754
H            1.39281224293647        0.01411661987256        0.19794944189868
H           -1.39896259043503        0.02980316229487        0.18917368504427
H           -3.30052898237603       -2.48465258413298       -0.69326453588962
H           -4.24972864661459       -4.50612202532694        0.30395399141992
H           -6.09026758604860       -4.31874684410832        1.95813452938446
H           -6.92723877829536       -2.11512151573179        2.58731816720418
