  80
       -116.55996809
 C         -6.0738332534        2.1640481920        2.4285453904
 C         -6.1773306388        1.3698180430        1.1129467295
 C         -7.5942290733        1.5018297034        0.5235963722
 C         -5.1897642460        1.9382266288        0.1168744989
 C         -5.2916530302        3.2693859121       -0.2613603518
 C         -4.4482591430        3.8321153465       -1.2020180518
 C         -3.4882597865        3.0387594149       -1.8129679548
 C         -3.3657238303        1.7144061506       -1.4600462278
 C         -4.1864721537        1.1500978605       -0.4713466692
 N         -4.0264767140       -0.1748664244       -0.1223738170
 C         -3.0192945169       -0.9442427959       -0.7623250728
 C         -3.4132774801       -1.9802317271       -1.6101162858
 C         -2.4467841218       -2.7550769989       -2.2754675239
 C         -1.1224624936       -2.4693008797       -2.0406978993
 N          0.0020536676       -3.0684443536       -2.5516253934
 C          1.1282908993       -2.4642124665       -2.0510352586
 C          2.4518009951       -2.7428244523       -2.2989869369
 C          3.4208155704       -1.9663941092       -1.6391275683
 C          3.0298818607       -0.9367429700       -0.7821974602
 N          4.0371882941       -0.1700911535       -0.1397953214
 C          4.8587076299       -0.7828697931        0.7836117342
 C          4.6184448989       -2.1163171357        1.1496446174
 C          5.4379387537       -2.7645842648        2.0449339986
 C          6.5109185596       -2.0928430456        2.6128926920
 C          6.7209244359       -0.7630699220        2.2960909115
 C          5.9098533340       -0.0831234121        1.3984649586
 C          6.1565750120        1.3863792751        1.1352021246
 C          7.5783844580        1.5619708050        0.5695872208
 C          6.0164839313        2.1490402481        2.4662995011
 C          5.1703125987        1.9550109500        0.1380745399
 C          5.2551824848        3.2932006019       -0.2187995708
 C          4.4114511070        3.8574155526       -1.1584207547
 C          3.4691531814        3.0589953011       -1.7902136509
 C          3.3629006791        1.7279998923       -1.4576568939
 C          4.1827670990        1.1614726781       -0.4693112369
 C          1.6936971849       -0.6384868576       -0.5329184112
 C          0.7098635528       -1.4205471287       -1.1670111314
 C         -0.7008150322       -1.4231745351       -1.1612103191
 C         -1.6824712538       -0.6417291579       -0.5227388582
 C         -4.8404789757       -0.7826245989        0.8107225049
 C         -4.5793296860       -2.1048484698        1.2018723262
 C         -5.3896591731       -2.7490786879        2.1084007634
 C         -6.4745578871       -2.0841733907        2.6613968298
 C         -6.7063991754       -0.7646781983        2.3181350330
 C         -5.9041758516       -0.0885715883        1.4097231921
 H         -6.7819412226        1.7912298244        3.1626851034
 H         -6.2785013577        3.2176487746        2.2623441802
 H         -5.0705944099        2.0686349722        2.8392261604
 H         -8.3373992190        1.1151925882        1.2150855215
 H         -7.8304526362        2.5408741164        0.3128659687
 H         -7.6618764336        0.9386054391       -0.4052329209
 H         -6.0536019516        3.8906413234        0.1839569952
 H         -4.5515935392        4.8724420687       -1.4690705686
 H         -2.8406298685        3.4520887518       -2.5712542885
 H         -2.6315812191        1.0968211873       -1.9503531344
 H         -4.4631029859       -2.1661458270       -1.7708612683
 H         -2.7471560751       -3.5347412841       -2.9582451009
 H          0.0005622192       -3.8488501321       -3.1873296074
 H          2.7495389079       -3.5186406954       -2.9872456224
 H          4.4699189393       -2.1469869452       -1.8102593306
 H          3.7756384946       -2.6348603512        0.7230859076
 H          5.2374352677       -3.7924441409        2.3065862705
 H          7.1650197239       -2.5936662948        3.3097696627
 H          7.5414755197       -0.2445055316        2.7680842023
 H          7.7971485740        2.6107234847        0.3906871729
 H          7.6701128347        1.0257738906       -0.3731406809
 H          8.3200563609        1.1716349253        1.2606088837
 H          6.7214758445        1.7750177116        3.2029837689
 H          5.0094651480        2.0236800774        2.8593946998
 H          6.2008156133        3.2101411648        2.3254239616
 H          6.0026689137        3.9193060427        0.2438335942
 H          4.5010145646        4.9032372366       -1.4085783712
 H          2.8231994098        3.4737124583       -2.5493953014
 H          2.6429915699        1.1066401547       -1.9643309225
 H          1.4259080723        0.1499017953        0.1520627945
 H         -1.4121699193        0.1508593216        0.1564115179
 H         -3.7273226180       -2.6170934960        0.7861676323
 H         -5.1731417520       -3.7683663023        2.3900441814
 H         -7.1222346080       -2.5824963057        3.3660625764
 H         -7.5380197121       -0.2516489236        2.7765194223
