60
 energy: -93.704584432495 gnorm: 0.000043554990 xtb: 6.7.1 (edcfbbe)
C            7.77768645979543        0.59107797475591       -1.31536716154798
O            7.04024967831832        0.04071501189396       -0.25205699360921
C            5.67990302185923        0.13113186574072       -0.29163424190065
C            4.94582554670421        0.72335464504218       -1.30969268295813
C            3.56398210971863        0.74454524743003       -1.22400077987180
C            2.88152580399582        0.18025779038698       -0.15509944969224
C            1.41803602663655        0.18995041394620       -0.09293868703269
C            0.71358983382249        1.43305994008489       -0.06308988921085
C            1.38355232786228        2.65772544581819       -0.06019463808735
C            0.68930200376121        3.86784691419644       -0.08385602177358
C           -0.68644879662050        3.86761467091111       -0.11395938683615
C           -1.38158822431433        2.65838602467056       -0.07593614001824
C           -0.71249483259138        1.43496312712949       -0.01087140592421
C           -1.41790026420611        0.19560359526868        0.08218342466535
C           -2.88146527399638        0.19000019862547        0.14438926530758
C           -3.56393486000672        0.80675214842283        1.18383164773981
C           -4.94581568493306        0.78988284592315        1.27029313667569
C           -5.67978074367436        0.14780624579133        0.28284725301844
O           -7.04011289059351        0.05515778048297        0.24788516183402
C           -7.77760501257419        0.65612537416635        1.28339333287068
C           -5.01729842568461       -0.46438243756118       -0.78357284215220
C           -3.63722094718327       -0.44928713143712       -0.86352011521462
O           -2.92291608374401       -0.98549521933497       -1.88920331177954
C           -3.61122017022905       -1.65929810463386       -2.91167893408712
C           -0.70879937779818       -1.04453279132495        0.10113489752221
C           -1.36520439110865       -2.26217720699537        0.28382769829129
C           -0.67794503614118       -3.47367249495065        0.21637338222590
C            0.67481467634090       -3.48079797007099       -0.03942203265768
C            1.36311439417873       -2.27495485164156       -0.16893885392222
C            0.70787901984249       -1.04896848651320       -0.04854123901263
C            3.63741008288737       -0.40857332012839        0.88303320824057
O            2.92333440854103       -0.89335285313180        1.93415233172396
C            3.61162409294527       -1.51801885877545        2.98738017734459
C            5.01747878654097       -0.42767130959752        0.80373687560511
H            7.61090524186522        1.66944992428329       -1.40489767974769
H            8.82390816466814        0.40789455088922       -1.07506206264640
H            7.53524353866915        0.10627189134893       -2.26666971792582
H            5.42685278856230        1.16139027574365       -2.16913372184882
H            2.99170085087122        1.18793413285513       -2.02551351140937
H            2.46249010215141        2.67103096899393       -0.03786838584106
H            1.23957339012885        4.79736139903785       -0.08777372230047
H           -1.23599552800534        4.79655275837527       -0.15738797994978
H           -2.46052798326238        2.67125591909224       -0.09871074866277
H           -2.99171419798397        1.28943662933632        1.96235509095581
H           -5.42693555817587        1.27006264921305        2.10686256542270
H           -8.82375412188782        0.46041471986798        1.05283912455213
H           -7.53425412571110        0.21859845761550        2.25711933815427
H           -7.61185293050856        1.73774272123755        1.32005908422295
H           -5.62800548018959       -0.93798116977067       -1.53440170897580
H           -4.28909813749217       -0.98986680013606       -3.45159196359622
H           -2.84207429919781       -2.01978212988733       -3.59300165828551
H           -4.17734236676909       -2.51173546725543       -2.52228579900286
H           -2.42573206109898       -2.26865054608879        0.48548841711686
H           -1.21597633018826       -4.40066506353157        0.35259251594585
H            1.21203482171244       -4.41402742827631       -0.12793519647850
H            2.42357609815871       -2.29273455873975       -0.37028950595596
H            4.17732954108022       -2.38822328305266        2.63881636777069
H            2.84249040332772       -1.84541325247793        3.68522053703277
H            4.28988684421742       -0.82396689578101        3.49473618160003
H            5.62824723256194       -0.86347267643148        1.57706961181144
