  60
        -93.69899748
 C          7.7522958175       -1.1068200404       -0.9961221344
 O          7.0380628653       -0.1987813968       -0.1943450218
 C          5.6757527024       -0.2492819750       -0.2129950567
 C          4.9165124006       -1.1285657942       -0.9736819761
 C          3.5359524080       -1.0703862569       -0.8992217834
 C          2.8757274439       -0.1480985463       -0.0960784657
 C          1.4166304756       -0.0820212636       -0.0534989780
 C          0.7562445093        1.1264241816       -0.4311710792
 C          1.4640293031        2.2039351304       -0.9688247388
 C          0.8219750395        3.3773407761       -1.3592428123
 C         -0.5488094193        3.4713684101       -1.2639189003
 C         -1.2864852153        2.3890338309       -0.7885764862
 C         -0.6653141384        1.2148957861       -0.3523767803
 C         -1.4184255848        0.0800801963        0.0744199866
 C         -2.8779127547        0.1436615290        0.1061648095
 C         -3.5467281059        1.0666978905        0.9014683210
 C         -4.9279883426        1.1290658849        0.9568301773
 C         -5.6791843014        0.2536109585        0.1838146594
 O         -7.0412642188        0.2101932855        0.1427677834
 C         -7.7638356112        1.1254506276        0.9288545777
 C         -5.0321229092       -0.6729273789       -0.6374920172
 C         -3.6523329959       -0.7368481997       -0.6851479242
 O         -2.9527695362       -1.5776592787       -1.4923086124
 C         -3.6593552072       -2.4954441167       -2.2871342505
 C         -0.7578422847       -1.1275467789        0.4541321517
 C         -1.4659147000       -2.2049823905        0.9914913589
 C         -0.8234128484       -3.3775170865        1.3840176155
 C          0.5476907987       -3.4707327109        1.2907036506
 C          1.2853926102       -2.3888107335        0.8143679272
 C          0.6636989411       -1.2156927541        0.3761270805
 C          3.6584274709        0.7325982930        0.6868699457
 O          2.9672947847        1.5694800550        1.5052056884
 C          3.6822057486        2.4822936011        2.2983067795
 C          5.0375699163        0.6734407107        0.6194833177
 H          7.5257665467       -0.9705356782       -2.0586539874
 H          8.8050401691       -0.8891563501       -0.8225225075
 H          7.5460980618       -2.1436453533       -0.7111973713
 H          5.3789975773       -1.8500641821       -1.6275874148
 H          2.9454627803       -1.7377403844       -1.5093944426
 H          2.5320285869        2.1229828546       -1.1013490994
 H          1.4037741490        4.2006881928       -1.7474626706
 H         -1.0610283579        4.3712247681       -1.5722166689
 H         -2.3633576035        2.4566615781       -0.7713517947
 H         -2.9628242936        1.7328505833        1.5192297300
 H         -5.3973402071        1.8512519610        1.6050550148
 H         -8.8147034051        0.9165017776        0.7341377389
 H         -7.5597801415        0.9884146232        1.9957641703
 H         -7.5426384526        2.1599775512        0.6469318152
 H         -5.6549945103       -1.3220231623       -1.2305418093
 H         -4.3003067163       -1.9889648754       -3.0163725886
 H         -2.8998024438       -3.0713657125       -2.8135446138
 H         -4.2675469784       -3.1717403911       -1.6775765505
 H         -2.5343477824       -2.1246434332        1.1214360664
 H         -1.4049897539       -4.2009356771        1.7725141003
 H          1.0599651358       -4.3695876703        1.6017670050
 H          2.3624218502       -2.4552755588        0.7982477091
 H          4.3342783178        1.9712009599        3.0143889064
 H          2.9283948545        3.0516181266        2.8399160187
 H          4.2803113478        3.1657053430        1.6866574145
 H          5.6667738386        1.3241407752        1.2040470457
