60
 energy: -93.766424338500 gnorm: 0.000024439185 xtb: 6.7.1 (edcfbbe)
C            7.86869669177119       -0.00002934866945       -0.42959288685946
O            6.89513379992626        0.00000072080783       -1.44278321328708
C            5.57690743120933        0.00001593645245       -1.09005158992100
C            4.66654007928198        0.00002047603901       -2.14323580968828
C            3.31156685947064        0.00002913945994       -1.87958952487598
C            2.83364481613244        0.00003400957712       -0.57866978230496
C            1.38062837343834        0.00003019366531       -0.28682995067191
C            0.69960868325991        1.21443170749869       -0.14535922690758
C            1.36264370399282        2.46171570336151       -0.28466122496143
C            0.69010219684759        3.63604452947276       -0.14431584110774
C           -0.69022904557703        3.63603739558912        0.14392391197160
C           -1.36273046273184        2.46170129229950        0.28440289986506
C           -0.69965550013849        1.21442416545774        0.14524211758123
C           -1.38063350781812        0.00001700022886        0.28685202498478
C           -2.83364850688563        0.00000984943913        0.57867919913234
C           -3.31158480385958        0.00006493842912        1.87959252963596
C           -4.66656215919651        0.00006002358281        2.14322398651927
C           -5.57691820004068       -0.00000082584245        1.09003010331550
O           -6.89515004570749        0.00000068502031        1.44274694686270
C           -7.86870175682407       -0.00004651121445        0.42954558273913
C           -5.11641148013550       -0.00005841542380       -0.22281283243878
C           -3.75033901831645       -0.00005366648897       -0.48035783258320
O           -3.20404215490675       -0.00010842122504       -1.72975881661115
C           -4.05731537863691       -0.00017059949073       -2.84445701740050
C           -0.69961432544742       -1.21438387372367        0.14538638376790
C           -1.36264705376530       -2.46166713357315        0.28469321431149
C           -0.69010629783350       -3.63599686991772        0.14434920360106
C            0.69022371187386       -3.63599083459208       -0.14389609251283
C            1.36272514930193       -2.46165556062799       -0.28437926175493
C            0.69964944655369       -1.21437784660273       -0.14521596442959
C            3.75034761382762        0.00003641597280        0.48035774720867
O            3.20406429061521        0.00004931819322        1.72976490277579
C            4.05734910195184        0.00006432903084        2.84445397655612
C            5.11641653267438        0.00002676255969        0.22279665165961
H            7.79821164633722       -0.89408633226147        0.19929180179218
H            8.82868772181140       -0.00005384593635       -0.94370234235150
H            7.79826127094559        0.89402683885502        0.19929857181537
H            5.04291261556906        0.00001450669311       -3.15297348208065
H            2.60312770921923        0.00002957398001       -2.69434321651044
H            2.41975559724510        2.45709342498649       -0.50772732165485
H            1.20656971376153        4.57908028072803       -0.25274248350030
H           -1.20672736003353        4.57906839749460        0.25224528008362
H           -2.41984130088347        2.45706906456404        0.50747306425527
H           -2.60315514003962        0.00011306444582        2.69435486082638
H           -5.04294668302226        0.00010307906480        3.15295742992298
H           -8.82869892711426       -0.00002743595032        0.94364385672627
H           -7.79823680394741        0.89398305024100       -0.19938042390121
H           -7.79823124691405       -0.89412992188246       -0.19930327918438
H           -5.81666255807467       -0.00010706827687       -1.04135872976694
H           -4.68960410426153        0.89409025388852       -2.87119732111452
H           -3.40247143170001       -0.00020504306903       -3.71444146784827
H           -4.68958513469584       -0.89444741610367       -2.87111243054039
H           -2.41975782508009       -2.45704462890517        0.50776385523165
H           -1.20657252340704       -4.57903275517169        0.25278096772100
H            1.20672223300634       -4.57902166880984       -0.25221802947321
H            2.41983524390842       -2.45702406055443       -0.50745353938173
H            4.68963185988585        0.89433099469346        2.87112902093188
H            4.68962450524426       -0.89420663499205        2.87115928887842
H            3.40251429799080        0.00008161268276        3.71444512589193
H            5.81667683992896        0.00002698485175        1.04133442906506
