60
 energy: -93.704584571145 gnorm: 0.000158143509 xtb: 6.7.1 (edcfbbe)
C            7.75350406675108       -1.11083831609688       -0.99040931106466
O            7.03963711817786       -0.21209768127989       -0.17792422568518
C            5.67685134880913       -0.25476081147615       -0.20602442944005
C            4.91837881036501       -1.11791707025818       -0.98455566255363
C            3.53697216774515       -1.05395949270136       -0.91631127899589
C            2.87911819210529       -0.14298923528555       -0.10132933802377
C            1.41650875140645       -0.07594441124707       -0.05871711078801
C            0.75449033703794        1.12705736452166       -0.45611739697081
C            1.46202438486171        2.20193579552329       -0.99543411651295
C            0.81606304306736        3.36883589384373       -1.40290466347982
C           -0.55455283632173        3.45804141737209       -1.31618580482214
C           -1.29106403230051        2.37824687716774       -0.82984956866205
C           -0.66675763539738        1.21219746769886       -0.38201171392401
C           -1.41804153072715        0.08198218202495        0.06560533946111
C           -2.88087557094942        0.14577287776443        0.10156544632236
C           -3.54567713445913        1.05695029400651        0.91069678987668
C           -4.92762933109161        1.11764914094765        0.97082544065055
C           -5.67953511988021        0.25079984006252        0.19002903866291
O           -7.04201920033539        0.20498668697957        0.15380133980195
C           -7.76287680553306        1.10499084035547        0.95866326008577
C           -5.03443894580456       -0.66404571236944       -0.64533622922094
C           -3.65428649519352       -0.72498173751223       -0.69817593932210
O           -2.95455081569245       -1.55893680386506       -1.51313630925762
C           -3.66287024193288       -2.46179668909057       -2.32338942402125
C           -0.75573187452932       -1.12006255821449        0.46561494925895
C           -1.46304003258235       -2.19393899794129        1.00714588697187
C           -0.81688410455858       -3.36026349983970        1.41594830627521
C            0.55364186523352       -3.44993553760475        1.32799160061879
C            1.28994444256121       -2.37103500085016        0.83943567281870
C            0.66537103960091       -1.20539632455459        0.39084691830190
C            3.65910684844721        0.72342913871110        0.69656384037453
O            2.96602746951616        1.55690826187000        1.51769975978991
C            3.68126115989000        2.45492115261736        2.32727483090973
C            5.03881931334677        0.65921388639891        0.63567557920933
H            7.53410318646849       -0.95529071154237       -2.05174305319602
H            8.80645236354379       -0.90233470857120       -0.80680419541449
H            7.53930653192942       -2.15102479106663       -0.72424839441620
H            5.38065837996347       -1.83259597203376       -1.64594589048662
H            2.94603790053658       -1.71254685552795       -1.53564434089159
H            2.53204310654242        2.12611537990135       -1.11447127908104
H            1.39678028182455        4.19081814946407       -1.79561163550671
H           -1.06904679326897        4.35227036711846       -1.63665899414460
H           -2.36822404784735        2.44318470924367       -0.81188198523681
H           -2.96003467136278        1.71818635153905        1.53223651791331
H           -5.39547114964896        1.83275270384853        1.62784225342167
H           -8.81420805869559        0.89377022120692        0.76896659216783
H           -7.55003698309797        0.95343896494585        2.02190392822540
H           -7.54900951517904        2.14470036872592        0.69038309837569
H           -5.65841312693337       -1.30763084548480       -1.24320298496148
H           -4.30450862664904       -1.94157044308697       -3.04222887766686
H           -2.90462856293410       -3.02863342979983       -2.86143390036949
H           -4.27082345017601       -3.14859665502515       -1.72540729949030
H           -2.53303053977681       -2.11785592164437        1.12654539145449
H           -1.39734385745292       -4.18136955172653        1.81087694374313
H            1.06824667335326       -4.34367263432234        1.64970700846207
H            2.36708042500447       -2.43623029096592        0.82013860609433
H            4.32526207473169        1.93031761596705        3.04080454190095
H            2.92756546724843        3.02201862798428        2.87140392930359
H            4.28797362275362        3.14209189660948        1.72845358493861
H            5.66779808924152        1.29966315171325        1.23165895609735
