  99
       -158.02829549
 C         -0.7378312786        3.9989539143        2.1327574341
 C         -2.1025677873        4.2648792103        2.1508390916
 C         -2.9798549078        3.4017535058        1.5157201886
 C         -2.5100905994        2.2705806175        0.8652822423
 N         -3.4101773508        1.4375392588        0.1848371937
 C         -3.3376718853        1.1027510448       -1.1492224020
 C         -2.4294042827        1.5174679213       -2.1133326106
 C         -2.5818389435        1.0188533272       -3.3932830935
 C         -3.6200181938        0.1492629370       -3.7186900672
 C         -4.5458523268       -0.2413803116       -2.7689732558
 C         -4.4086336919        0.2369872828       -1.4734865612
 C         -5.1546979651        0.0428832527       -0.2586631755
 C         -6.2794113229       -0.7003138427        0.0670549099
 C         -6.7313352139       -0.6782056527        1.3737466404
 C         -6.0696830767        0.0629826439        2.3507056673
 C         -4.9459792697        0.8092070225        2.0513229252
 C         -4.4967003548        0.8038959276        0.7375545265
 C         -1.1296217059        1.9841218676        0.8585189778
 C         -0.6105483553        0.7850081692        0.2523871084
 N         -1.4074502985       -0.3279345162        0.1943107571
 C         -0.8156311801       -1.4137675351       -0.2672538576
 C         -1.5225888985       -2.6938206131       -0.0609558358
 C         -2.8660483805       -2.8385061437       -0.3684821141
 C         -3.5000510546       -4.0525719172       -0.1713880252
 C         -2.7953942838       -5.1261236415        0.3482152786
 C         -1.4616428619       -4.9844422597        0.6887394176
 C         -0.8153746335       -3.7697486387        0.4933129168
 N          0.5313344098       -3.6192141001        0.8593362250
 C          1.0383981789       -2.5833406731        1.6197205190
 C          0.3630695311       -1.6421340740        2.3843233210
 C          1.1137768594       -0.6603574326        3.0032717190
 C          2.5018621774       -0.6301826215        2.8944413920
 C          3.1817473661       -1.6043743052        2.1880093820
 C          2.4493257350       -2.5956219372        1.5514081614
 C          2.8053761019       -3.7167037657        0.7247412292
 C          4.0155003727       -4.2387086270        0.2930777388
 C          4.0002252133       -5.3331664772       -0.5513302269
 C          2.7987904882       -5.8956378252       -0.9756641247
 C          1.5802534458       -5.3936487759       -0.5577383673
 C          1.5905861213       -4.3099053615        0.3080924306
 N          0.3749673390       -1.4706556682       -0.8130057954
 C          1.1304340036       -0.3223012759       -0.7371203905
 C          2.4732673196       -0.3665734534       -1.2096598121
 C          3.0088041732       -1.5736411604       -1.6955342009
 C          4.3363108866       -1.6791852212       -2.0301958367
 C          5.1836720320       -0.5821654775       -1.8984515160
 C          4.6699020227        0.6308839025       -1.4678298130
 C          3.3299607095        0.7590108554       -1.1440589368
 N          2.8387171551        2.0174136810       -0.7581598433
 C          1.9270279962        2.7781047770       -1.4600356240
 C          1.2623630895        2.4829898574       -2.6404926773
 C          0.3965159586        3.4366298985       -3.1435816600
 C          0.1930789079        4.6507944348       -2.4919595052
 C          0.8679571463        4.9554707261       -1.3242879591
 C          1.7507277543        4.0196043635       -0.8067332933
 C          2.6180635300        4.0001182293        0.3409236585
 C          2.8905825464        4.9036437138        1.3569091763
 C          3.7935713818        4.5411614963        2.3401470651
 C          4.4177401859        3.2942255086        2.3226677943
 C          4.1663211074        2.3777175824        1.3204723549
 C          3.2685829621        2.7407348444        0.3240124554
 N          0.6393213352        0.7615834231       -0.1551883235
 C         -0.2604219191        2.8740775099        1.5000419624
 H         -0.0489904858        4.6675032471        2.6273028783
 H         -2.4808365409        5.1432105181        2.6509793800
 H         -4.0398010169        3.6124861053        1.5011162437
 H         -1.6269012333        2.1988788615       -1.8726420736
 H         -1.8797845379        1.3110198354       -4.1599046320
 H         -3.7029266699       -0.2193485064       -4.7302866586
 H         -5.3563105968       -0.9074430888       -3.0257502367
 H         -6.7882729870       -1.2843192864       -0.6854331269
 H         -7.6069080477       -1.2481385869        1.6470198689
 H         -6.4422131253        0.0506781564        3.3643353816
 H         -4.4271109154        1.3710778172        2.8132352025
 H         -3.3987797436       -1.9960556324       -0.7797070065
 H         -4.5441828572       -4.1593782213       -0.4231761184
 H         -3.2876328432       -6.0747359448        0.5029947763
 H         -0.9148723873       -5.8073655872        1.1256808458
 H         -0.7130839690       -1.6596527196        2.4756514656
 H          0.6107586106        0.1039328079        3.5774500513
 H          3.0492813748        0.1652135939        3.3782743559
 H          4.2593155913       -1.5934966053        2.1196962812
 H          4.9465989903       -3.7918361366        0.6068750524
 H          4.9316804557       -5.7568094613       -0.8965815376
 H          2.8190876386       -6.7402591894       -1.6484259812
 H          0.6521982525       -5.8236396064       -0.9034272155
 H          2.3443536871       -2.4193165376       -1.7773801441
 H          4.7254892847       -2.6204890634       -2.3888212362
 H          6.2298664492       -0.6652281694       -2.1492879435
 H          5.3079466353        1.5012052994       -1.3994899168
 H          1.4126900913        1.5386640510       -3.1417452414
 H         -0.1345928011        3.2386833280       -4.0630485472
 H         -0.5003440444        5.3642087646       -2.9119745688
 H          0.7142100634        5.9005624899       -0.8258002009
 H          2.4046251497        5.8675453833        1.3778962351
 H          4.0190572177        5.2310289894        3.1397873104
 H          5.1119832172        3.0418893115        3.1106252091
 H          4.6413516374        1.4085191350        1.3074267927
 H          0.7901600453        2.6321108723        1.5162610584
