  82
       -136.75278615
 F         -1.8401441614       -5.7143220618       -0.2936902589
 C         -3.0990919049       -5.3277810869       -0.6005282499
 F         -3.9112745491       -6.0781455111        0.1575387116
 F         -3.2950381773       -5.7268492713       -1.8737504378
 C         -3.3015856331       -3.8579940373       -0.4228792422
 C         -4.1043590788       -3.3588650853        0.6012069609
 C         -4.2618026534       -1.9997569855        0.7500363552
 C         -3.6093991361       -1.1154800668       -0.1193931172
 N         -3.7714589805        0.2577955578        0.0111081948
 C         -2.7609692130        1.2384700987       -0.0274898935
 C         -1.3738735641        1.0487831450        0.0232739895
 C         -0.5382048628        2.1733828489       -0.2523696402
 C          0.8161090810        2.0743539933       -0.2331176546
 C          1.4730452089        0.8512590281        0.0741185345
 C          2.9010792028        0.7344321319        0.0711816825
 C          3.5394885866       -0.5157926193       -0.0928314238
 C          4.9052861578       -0.6330002201       -0.0931680303
 C          5.7169220536        0.4959113637        0.0721047550
 N          7.1053693892        0.3775609022        0.0764511323
 C          7.9879218661        1.1703923355       -0.6321044709
 C          7.7297402326        2.1930864466       -1.5344895425
 C          8.8099783676        2.8104662316       -2.1368100176
 C         10.1178465184        2.4182616496       -1.8627339601
 C         10.3801833847        1.3801458726       -0.9886589844
 C          9.3120009824        0.7462638010       -0.3713561119
 C          9.2142332216       -0.3552711217        0.5473113229
 C         10.1546194376       -1.1579045216        1.1761476165
 C          9.7129338520       -2.1344767563        2.0489154383
 C          8.3551000314       -2.3007133665        2.3100472256
 C          7.3999003649       -1.5129295229        1.6953650135
 C          7.8352758825       -0.5508047231        0.7944817603
 C          5.1064306168        1.7454376404        0.2339058307
 C          3.7402765797        1.8597218728        0.2319926094
 C          0.6391664769       -0.2465364740        0.4116216527
 C         -0.7188233055       -0.1603758899        0.3969857279
 N         -3.3164385446        2.4620868680       -0.0069532165
 C         -4.6292000747        2.3113378141        0.1128176724
 C         -5.5115355747        3.4645005002        0.1294407707
 C         -5.0395749384        4.6610082659        0.6728046379
 C         -5.8429635572        5.7831775416        0.6963567326
 C         -7.1235978106        5.7332902021        0.1675004719
 C         -7.5899035528        4.5573301841       -0.3982707671
 C         -6.7933366407        3.4288279662       -0.4215941136
 C         -4.9670040345        0.9287792778        0.1434948355
 C         -6.2622937465        0.3107429722        0.2393871043
 C         -6.6245929650       -0.7830929060       -0.5606097830
 C         -7.8782548353       -1.3462348526       -0.4465475836
 C         -8.7954184474       -0.8447645363        0.4656483925
 C         -8.4517594661        0.2419527275        1.2581348606
 C         -7.2046834931        0.8179259545        1.1478149235
 C         -2.8014081422       -1.6265376038       -1.1472346044
 C         -2.6488662988       -2.9840465865       -1.2950068317
 H         -4.5973371849       -4.0391769438        1.2778944016
 H         -4.8720954774       -1.6097241134        1.5494006944
 H         -1.0276748659        3.0998778420       -0.5067639100
 H          1.4071625133        2.9369568061       -0.4997799276
 H          2.9429876918       -1.3969633126       -0.2700791892
 H          5.3680507709       -1.5944349348       -0.2605682126
 H          6.7197837234        2.4894734492       -1.7726869733
 H          8.6347950919        3.6113255121       -2.8395992048
 H         10.9351925624        2.9272058070       -2.3512248156
 H         11.3927891961        1.0619465720       -0.7925115720
 H         11.2082015610       -1.0153384387        0.9896790308
 H         10.4282938420       -2.7716432267        2.5468384396
 H          8.0409353872       -3.0583295291        3.0123769623
 H          6.3521809708       -1.6351868913        1.9231040101
 H          5.7239956560        2.6155840889        0.4013302108
 H          3.3010006929        2.8290787412        0.4073827631
 H          1.0934908762       -1.1675187222        0.7444263791
 H         -1.3016254522       -1.0026879085        0.7338145814
 H         -4.0396830185        4.6825944746        1.0775747441
 H         -5.4726954060        6.7017019322        1.1274661793
 H         -7.7533246692        6.6105104705        0.1877202051
 H         -8.5796226287        4.5211602636       -0.8296454925
 H         -7.1546785636        2.5252701509       -0.8887926072
 H         -5.9311702376       -1.1627103326       -1.2961072717
 H         -8.1454554202       -2.1817676979       -1.0765126491
 H         -9.7722409621       -1.2949429802        0.5559856571
 H         -9.1616973777        0.6367747025        1.9698890457
 H         -6.9328822836        1.6535260947        1.7756900882
 H         -2.3106603617       -0.9432782765       -1.8229608446
 H         -2.0377194827       -3.3818877758       -2.0903946861
