82
 energy: -136.836566097297 gnorm: 0.000042401382 xtb: 6.7.1 (edcfbbe)
F           -1.52899094544619       -5.53409045185865       -0.22996350064931
C           -2.79904182626405       -5.22191352185763       -0.55744815954114
F           -3.58426884488193       -6.00407664090258        0.19399829082227
F           -2.96093017517061       -5.62692089539253       -1.82963317927542
C           -3.07763152355937       -3.75658461022973       -0.38692981823019
C           -3.90574010076308       -3.30170529563912        0.62974396471454
C           -4.12909051671130       -1.94622079685559        0.77392509642832
C           -3.52662980721604       -1.04445119705091       -0.09968472380154
N           -3.76183989909636        0.32788184273497        0.03367608733385
C           -2.82957380875386        1.34000718406213        0.07717501494808
C           -1.38941319669059        1.15796090622177        0.09454980520262
C           -0.58988992511448        2.14538479429822       -0.48258124579666
C            0.78299794818524        2.02654295458749       -0.47834398778760
C            1.40244533709032        0.91974965307201        0.10232001096033
C            2.86412850131827        0.78631698452230        0.09656273552695
C            3.46666464241556       -0.45084134924359       -0.12642444858119
C            4.84047348232428       -0.57822372153496       -0.14352280362133
C            5.64950137776171        0.53283681722497        0.08103208981314
N            7.04344857405960        0.40735324872213        0.07129605087664
C            7.92128720663518        1.20522203006799       -0.63667437274744
C            7.65813960979323        2.24590618895688       -1.51583182779083
C            8.73393431899761        2.86732451308619       -2.12058869309722
C           10.04329555070021        2.46341102105899       -1.86947641793547
C           10.31001474850460        1.41228229365409       -1.01530729582479
C            9.24516620052145        0.77200026652889       -0.39537970028270
C            9.15258593975456       -0.33953815670638        0.50925788179702
C           10.09639180722645       -1.15783182125412        1.11571777192273
C            9.66028428350156       -2.14691517306836        1.97427247381638
C            8.30369767227079       -2.31485263044587        2.24277931513201
C            7.34598877216089       -1.51313622431129        1.65174600050082
C            7.77642722690875       -0.53349890482599        0.76847534204897
C            5.05650299815802        1.77111762480841        0.31504749076447
C            3.68236056732817        1.89396340931619        0.31334429759340
C            0.60063319799662       -0.05221889132565        0.69862630205707
C           -0.77401246701608        0.06512099008085        0.70393714027744
N           -3.41269413343180        2.50664119684575        0.15521735301851
C           -4.75749390553685        2.28989936576456        0.16583180847367
C           -5.68695249304105        3.40918938495180        0.20345224643978
C           -5.26728080705540        4.61352890447579        0.76651293412500
C           -6.12101821683995        5.69818687029547        0.81445794295274
C           -7.40229423708484        5.59875496368200        0.29675637282134
C           -7.81996666780128        4.41089746107114       -0.28080422711499
C           -6.97013409194749        3.32216335055172       -0.33264396320086
C           -5.00375801011708        0.92956448878284        0.10444158878980
C           -6.24915587625362        0.17347602619017        0.10165458495658
C           -6.49004928106424       -0.81350946834325       -0.85258368809319
C           -7.67335304484887       -1.52818778816463       -0.83261378003989
C           -8.62872797558450       -1.26875250237206        0.13550932471167
C           -8.39948536335362       -0.28402274527882        1.08339599436450
C           -7.21858718487465        0.43251525690530        1.07019871704977
C           -2.69795528011381       -1.50783329986487       -1.12050914523976
C           -2.46930725727000       -2.86086457431105       -1.25984721228813
H           -4.37128805652508       -4.00309178306760        1.30426979362821
H           -4.76573689900744       -1.58250570213785        1.56534037191765
H           -1.07155747910527        2.99923888929993       -0.93272180552949
H            1.38644301464863        2.78781192969629       -0.95007027545088
H            2.85050171700688       -1.31665387647463       -0.31962133289063
H            5.29640888359127       -1.53530573808109       -0.34837072436422
H            6.64643504411531        2.55444416176194       -1.73227669153558
H            8.55506083822362        3.68226836405814       -2.80653681077851
H           10.85701104236930        2.97668020209627       -2.35990228929482
H           11.32345677098807        1.08775300270924       -0.83333416415252
H           11.14860469911713       -1.01615166630902        0.92006739929489
H           10.37745395475454       -2.79590918246173        2.45444176526055
H            7.99334577829299       -3.08685207804523        2.93148719687454
H            6.29875533659821       -1.63964795218075        1.88162655316955
H            5.68008321554228        2.62961985221943        0.51499422434600
H            3.23445557835511        2.85569423759398        0.51496115490344
H            1.06223760400951       -0.89617999013348        1.18967032412287
H           -1.36682302714982       -0.68469170115950        1.20731161204576
H           -4.26492905266966        4.67630342354236        1.16095372822990
H           -5.78800742676602        6.62598156490767        1.25675105863224
H           -8.07118878983457        6.44601705890811        0.33592437662921
H           -8.81328829498323        4.33357220415421       -0.69892867355906
H           -7.29715472591865        2.40646728591330       -0.80234717819887
H           -5.75633514967741       -1.00879492335088       -1.62198518065350
H           -7.85059923438688       -2.28857417990857       -1.57877127787561
H           -9.55126975671460       -1.82938022730764        0.14915167443643
H           -9.14324339159792       -0.07616333565001        1.83826307142303
H           -7.03482775682660        1.19973952697665        1.80798271523410
H           -2.23838960977688       -0.80316474622777       -1.79634196757826
H           -1.83068253034521       -3.22845053624178       -2.04819230104745
