  65
       -105.52124267
 C         -7.3098348387       -0.3870330392        0.2060585525
 C         -6.3127453927        0.7558945220       -0.0628789599
 C         -7.0697006183        2.0694066629       -0.3348994658
 C         -5.4931888632        0.4068605283       -1.2883175474
 C         -6.1280607095        0.2076882144       -2.5064245879
 C         -5.4259850771       -0.1051400762       -3.6558258260
 C         -4.0465783116       -0.2208699661       -3.6018224763
 C         -3.3892103385       -0.0300607706       -2.4068563206
 C         -4.0982346424        0.2790616589       -1.2392317907
 N         -3.4121307677        0.4591516571       -0.0544440046
 C         -1.9947243937        0.3117329314       -0.0480025439
 C         -1.1789137277        1.4410037873       -0.1964505585
 C          0.1808286911        1.2873411505       -0.1827322781
 C          0.7645273267        0.0183090711       -0.0256930891
 C         -0.0536230005       -1.1282596565        0.1193594034
 C         -1.4419512790       -0.9407717821        0.1059386429
 C          0.5592562572       -2.4262217776        0.2752975793
 C         -0.1820773332       -3.6091458708        0.4143950419
 C          0.4338424976       -4.8288481881        0.5607620792
 C          1.8259208460       -4.9206543900        0.5748098682
 C          2.5812908363       -3.7847092286        0.4405559574
 C          1.9695047954       -2.5299411312        0.2893584593
 C          2.7937577137       -1.3691711690        0.1499826444
 N          4.1148172678       -1.4620733852        0.1680588667
 C          4.8988825700       -0.3974168580        0.0416124265
 C          6.2892978301       -0.4900665707        0.0628013658
 C          7.0823750346        0.6455902450       -0.0718065366
 C          8.4877219139        0.5285311466       -0.0454319294
 N          9.6288156914        0.4142910528       -0.0220133736
 C          6.4819225562        1.9109443497       -0.2332204023
 C          7.2860361287        3.0622151790       -0.3698299019
 N          7.9232382018        4.0094552431       -0.4815445913
 C          5.0963066713        2.0281912154       -0.2579613602
 C          4.2806937286        0.9043132665       -0.1240483057
 N          2.9565767576        0.9828080956       -0.1428655681
 C          2.1874558352       -0.0914889157       -0.0115109630
 C         -4.0536493328        0.7840071736        1.1245158367
 C         -3.3024039903        0.9520798809        2.2945770184
 C         -3.9136585319        1.2787099147        3.4846117407
 C         -5.2886169958        1.4411048467        3.5314285948
 C         -6.0337816032        1.2688090399        2.3794802029
 C         -5.4459162399        0.9402126212        1.1658306986
 H         -7.9276465116       -0.1661075716        1.0716645446
 H         -6.7705600205       -1.3130666024        0.3962389161
 H         -7.9629167485       -0.5396498228       -0.6482958427
 H         -7.7165161647        1.9712801175       -1.2018954676
 H         -7.6834482612        2.3461468327        0.5173928066
 H         -6.3612066456        2.8735993872       -0.5239543858
 H         -7.2016966402        0.2983309163       -2.5668612685
 H         -5.9513729353       -0.2541126278       -4.5863495994
 H         -3.4824139700       -0.4589974260       -4.4904864006
 H         -2.3146553492       -0.1171727927       -2.3682940875
 H         -1.6329118787        2.4126164835       -0.3171309504
 H          0.8404573770        2.1341019264       -0.2924806280
 H         -2.1120489186       -1.7785361982        0.2162472347
 H         -1.2598776539       -3.5746440418        0.4066681058
 H         -0.1637742381       -5.7222370772        0.6653695255
 H          2.3025923470       -5.8822712654        0.6901935280
 H          3.6597447343       -3.8226999705        0.4464089131
 H          6.7441253779       -1.4605711883        0.1864737682
 H          4.6333009788        2.9949802224       -0.3806112408
 H         -2.2319248180        0.8228623091        2.2617628225
 H         -3.3172193570        1.4054654627        4.3750583465
 H         -5.7778403361        1.6975406720        4.4582489250
 H         -7.1041593318        1.3947610609        2.4344011330
