  59
        -95.97990532
 C         -6.2156402859       -2.4024437610        2.3563787532
 C         -4.8468843258       -2.2643817163        2.5730954070
 C         -4.0813968092       -1.3962910399        1.8174690601
 C         -4.7205367809       -0.6674787507        0.8245415041
 C         -6.1136788145       -0.7850248663        0.6114023161
 C         -6.8607700227       -1.6634052149        1.3828053162
 C         -6.4420562965        0.1292891570       -0.4485549624
 C         -7.6235470874        0.4523632167       -1.1003521697
 C         -7.5834908094        1.3888009810       -2.1159080979
 C         -6.3844670637        1.9902519004       -2.4911343814
 C         -5.1946215609        1.6843593161       -1.8577425673
 C         -5.2329863921        0.7597975943       -0.8237093010
 N         -4.2020432424        0.2638317918       -0.0522774509
 C         -2.8655214453        0.6684047651       -0.1051033159
 C         -2.5403164020        2.0350701555       -0.0473876380
 N         -1.2782531114        2.4321209992       -0.0928196703
 C         -0.3014750736        1.5824139084       -0.1662472326
 C         -0.4981593696        0.1717790337       -0.2019475519
 C          0.6293950882       -0.6793348616       -0.2283887815
 C          0.5486632580       -2.0977137787       -0.3099647595
 N          1.6043516281       -2.8407138384       -0.3012596690
 C          2.8260286613       -2.2982582994       -0.2180833269
 C          2.9461348376       -0.8995975732       -0.1957999146
 N          4.1899282961       -0.3017828604       -0.1046385657
 C          4.4800274616        0.7864843866        0.7061534392
 C          3.6309386300        1.5476199207        1.4926099383
 C          4.1864196563        2.5838340937        2.2211434196
 C          5.5520403476        2.8502161797        2.1782291868
 C          6.4033710284        2.0853778573        1.4028041191
 C          5.8671965661        1.0430652171        0.6607359848
 C          6.4366061298        0.0708862265       -0.2350311861
 C          7.7264256057       -0.1563655671       -0.6916734719
 C          7.9358167332       -1.1735918246       -1.6038958385
 C          6.8743158791       -1.9402158818       -2.0744857760
 C          5.5799613090       -1.7316264812       -1.6322507048
 C          5.3691480558       -0.7369146435       -0.6888666098
 N          1.8803069819       -0.1346577632       -0.2054875112
 C         -1.8457984597       -0.2573829640       -0.1957409696
 H         -6.7790457562       -3.0919779135        2.9668544285
 H         -4.3734033200       -2.8447519557        3.3508717997
 H         -3.0244333928       -1.2807551217        2.0042684741
 H         -7.9240509392       -1.7616288565        1.2253280319
 H         -8.5512270203       -0.0223963103       -0.8192593519
 H         -8.4921993150        1.6556163095       -2.6342641658
 H         -6.3834869933        2.7090566413       -3.2968053096
 H         -4.2667362930        2.1441407598       -2.1621285443
 H         -3.2984246400        2.7953001854        0.0524255951
 H          0.7064852197        1.9695035897       -0.2096388158
 H         -0.4077326165       -2.5883689675       -0.4069746890
 H          3.6686979520       -2.9559964630       -0.1042166590
 H          2.5735448623        1.3382506382        1.5298977014
 H          3.5464331453        3.1963158961        2.8380964278
 H          5.9493899911        3.6663006216        2.7627795485
 H          7.4624262766        2.2912216140        1.3721105106
 H          8.5448506528        0.4556045562       -0.3446953027
 H          8.9323102252       -1.3690458837       -1.9701281336
 H          7.0619628872       -2.7122171197       -2.8056183946
 H          4.7636359295       -2.3159397857       -2.0275524041
 H         -2.0932233536       -1.3044454681       -0.2834958533
