  53
  -85.9132466934000       0.312534041962806      !
 O          3.8038902609        2.2524650068       -0.7656007536
 C          4.3073020226        1.1602072017       -0.3734506810
 C          5.7453742785        0.9938897368       -0.3492273207
 C          6.5425836420        2.0691383397       -0.7880689532
 C          7.9174477832        1.9944114875       -0.7955385693
 C          8.5630188037        0.8375403126       -0.3748663763
 C          7.8040762369       -0.2402103340        0.0574963479
 C          6.4204572818       -0.1659876251        0.0715810761
 S          5.5819463127       -1.6082249663        0.6431328486
 C          3.8905893250       -1.1807995739        0.5140776361
 C          2.9781407563       -2.1543171602        0.8985571638
 C          1.6177180658       -1.9194861205        0.8447258266
 C          1.1415970423       -0.6723298122        0.3988205008
 C         -0.2897855690       -0.4027249496        0.3150388623
 C         -0.7829472848        0.8931678715        0.5574496588
 C         -2.1232605075        1.1947069938        0.4802708294
 C         -3.0050695708        0.1759054406        0.1321885157
 C         -2.5348266193       -1.1419751754       -0.0902612380
 C         -1.1858731167       -1.4265407362        0.0005038620
 C         -3.6953577002       -1.9431370472       -0.3776501174
 C         -3.8780279811       -3.2829185970       -0.6852652422
 C         -5.1615089816       -3.7355269337       -0.9298062339
 C         -6.2484618562       -2.8674222074       -0.8846877083
 C         -6.0904187551       -1.5274005083       -0.5795796673
 C         -4.8081885210       -1.0741676442       -0.3092958292
 N         -4.3713021482        0.2021320117       -0.0014155728
 C         -5.1849894572        1.3376575166        0.1311216843
 C         -4.8747400058        2.5009344214       -0.5674953442
 C         -5.6753328151        3.6196871523       -0.4314966556
 C         -6.7894605092        3.5853478781        0.3908397174
 C         -7.1002958464        2.4268424846        1.0835688131
 C         -6.3017501906        1.3047995224        0.9607111202
 C          2.0609996377        0.2972392447        0.0218517032
 C          3.4492790995        0.0823562126        0.0532949430
 H          6.0258388720        2.9591961277       -1.1127356102
 H          8.4964307237        2.8434762699       -1.1280956269
 H          9.6394866658        0.7715527649       -0.3796775414
 H          8.2814041172       -1.1517136846        0.3862939706
 H          3.3530962521       -3.1029245851        1.2540762947
 H          0.9306413951       -2.6790248626        1.1803689137
 H         -0.0881339771        1.6677287891        0.8419957469
 H         -2.4795776697        2.1901451597        0.6976796654
 H         -0.8292379188       -2.4248759455       -0.1993633181
 H         -3.0339222134       -3.9534106789       -0.7368845712
 H         -5.3257262028       -4.7753147220       -1.1690789991
 H         -7.2371015035       -3.2465851761       -1.0956887591
 H         -6.9372659881       -0.8584272710       -0.5636981003
 H         -4.0184322891        2.5148661728       -1.2250261743
 H         -5.4316940149        4.5192516021       -0.9764393446
 H         -7.4135963234        4.4599775023        0.4926546604
 H         -7.9645642167        2.3985149391        1.7301276042
 H         -6.5274425925        0.4069322154        1.5164526577
 H          1.7361345371        1.2540205756       -0.3573845455
  53
  -85.9131773688000       0.290427641725468      !
 O          3.6339742013       -0.6451037867       -2.1261563135
 C          4.1933058481       -0.3397985748       -1.0332869666
 C          5.6376713304       -0.3173216253       -0.9410158223
 C          6.3783230525       -0.6079490894       -2.1035309938
 C          7.7550313588       -0.6021883830       -2.1039788993
 C          8.4590312929       -0.2949311586       -0.9453354357
 C          7.7566751887       -0.0014511741        0.2143501078
 C          6.3709992541       -0.0122551055        0.2197174930
 S          5.6072510509        0.3771572355        1.7609748299
 C          3.8962558335        0.3345506463        1.3959567571
 C          3.0344387101        0.6475441638        2.4387029911
 C          1.6637808414        0.6347297039        2.2617201384
 C          1.1264571241        0.2912182961        1.0077630951
 C         -0.3142302676        0.2842523584        0.7764945471
 C         -1.1448166743        1.2141295938        1.4276365095
 C         -2.5051789646        1.2555086033        1.2195805900
 C         -3.0601435029        0.3357421016        0.3354686133
 C         -2.2469824482       -0.6318454886       -0.3058118971
 C         -0.8824553423       -0.6484572856       -0.0943663640
 C         -3.1322710925       -1.4444097817       -1.0981501184
 C         -2.9328636067       -2.5206647934       -1.9495113002
 C         -4.0298417312       -3.0657680358       -2.5912574984
 C         -5.3051067552       -2.5405061460       -2.4035833598
 C         -5.5271588774       -1.4663928631       -1.5605173384
 C         -4.4336726106       -0.9319646641       -0.8961445148
 N         -4.3707188178        0.1425258356       -0.0259559470
 C         -5.4621778106        0.9130955950        0.4024368459
 C         -5.4200463983        2.3002778643        0.2971715917
 C         -6.4959657395        3.0557964723        0.7248175670
 C         -7.6185866626        2.4377375422        1.2505598874
 C         -7.6625210905        1.0569548078        1.3514879194
 C         -6.5889506064        0.2925426620        0.9335260601
 C          1.9948960720       -0.0301924913       -0.0264679404
 C          3.3921483965       -0.0076657017        0.1189952334
 H          5.8161570605       -0.8416171457       -2.9947195946
 H          8.2896329546       -0.8412986096       -3.0115769662
 H          9.5374890079       -0.2850685122       -0.9398017429
 H          8.2805696978        0.2425631077        1.1270223692
 H          3.4560541061        0.8905708802        3.4031898277
 H          1.0148456332        0.8501356710        3.0950036708
 H         -0.6960208468        1.9371860263        2.0913050714
 H         -3.1215505632        1.9773213607        1.7338125741
 H         -0.2669712871       -1.3933443570       -0.5734019212
 H         -1.9420264488       -2.9170314489       -2.1087095992
 H         -3.8976541168       -3.9057312758       -3.2562637464
 H         -6.1398572600       -2.9775794199       -2.9307772701
 H         -6.5165324174       -1.0530253503       -1.4361726382
 H         -4.5518095369        2.7754295477       -0.1343953268
 H         -6.4602193224        4.1315102205        0.6397057834
 H         -8.4577459675        3.0309532730        1.5804040602
 H         -8.5341309297        0.5721331506        1.7648322213
 H         -6.6094866749       -0.7826757423        1.0294832651
 H          1.6223132045       -0.2674328788       -1.0112172981
  53
  -85.9130043865000       0.241847046214098      !
 O          3.6450492048       -0.4924875319       -2.1435149197
 C          4.1951853224       -0.2811424292       -1.0245256297
 C          5.6360444310       -0.1720023847       -0.9346614349
 C          6.3783094376       -0.2226549502       -2.1307778750
 C          7.7507241338       -0.1135030377       -2.1347551564
 C          8.4473463185        0.0637499776       -0.9449504082
 C          7.7427911419        0.1213911715        0.2485492533
 C          6.3619127792        0.0060220345        0.2565825808
 S          5.5931515081        0.0933199371        1.8414137758
 C          3.8834323694        0.0898955959        1.4671269327
 C          3.0169206337        0.2784699245        2.5353819273
 C          1.6470486283        0.2783716995        2.3515855053
 C          1.1180655507        0.0619804147        1.0666368218
 C         -0.3214452376        0.0944978017        0.8281031677
 C         -1.1268082403        1.0197673637        1.5156793985
 C         -2.4824041892        1.1170248438        1.2963683468
 C         -3.0606009686        0.2433928250        0.3810833203
 C         -2.2677954273       -0.6970533417       -0.3232388353
 C         -0.9050972168       -0.7632810370       -0.1060710108
 C         -3.1631305600       -1.4062751788       -1.1993658802
 C         -2.9906093278       -2.4410558334       -2.1063282357
 C         -4.0977750054       -2.9120810404       -2.7879984839
 C         -5.3613954854       -2.3727162704       -2.5645804108
 C         -5.5568601107       -1.3394071640       -1.6659671560
 C         -4.4460410419       -0.8497143205       -0.9957410682
 N         -4.3650735990        0.1450699211       -0.0372708270
 C         -5.4296552732        0.9473835797        0.4000475928
 C         -6.2335641025        1.6015522934       -0.5291567180
 C         -7.2784193018        2.3965814629       -0.0966200267
 C         -7.5243235028        2.5509352544        1.2578592484
 C         -6.7231303305        1.9021235144        2.1828697141
 C         -5.6802261601        1.0984773648        1.7605678222
 C          1.9897288049       -0.1484453602        0.0076665582
 C          3.3865627067       -0.1139257501        0.1579768881
 H          5.8219232059       -0.3572073559       -3.0456201769
 H          8.2879542304       -0.1691166313       -3.0701781687
 H          9.5220887704        0.1538787929       -0.9414437213
 H          8.2608767418        0.2603180564        1.1860895513
 H          3.4341921984        0.4172473446        3.5220168484
 H          0.9909446429        0.4051840838        3.1975191948
 H         -0.6572976656        1.7014016845        2.2084209015
 H         -3.0734045708        1.8617476418        1.8075726619
 H         -0.3016667958       -1.4823847498       -0.6373512052
 H         -2.0138213868       -2.8693094180       -2.2696445717
 H         -3.9858833328       -3.7166435751       -3.4989012421
 H         -6.2090600103       -2.7710064449       -3.1018062827
 H         -6.5425180526       -0.9372349810       -1.4871604908
 H         -6.0225150849        1.4967631529       -1.5828807609
 H         -7.8973686023        2.9049436438       -0.8206138192
 H         -8.3381666918        3.1762899370        1.5916710549
 H         -6.9151778319        2.0162551526        3.2392153518
 H         -5.0669933288        0.5726994768        2.4770714170
 H          1.6190153834       -0.2881384830       -0.9963730092
  53
  -85.9125851375000       0.155191270097628      !
 O          3.8341355335        2.2007319684       -0.9713546704
 C          4.3263639516        1.1288036959       -0.5148231365
 C          5.7516031071        1.0278065651       -0.2803949658
 C          6.5425956465        2.1701506136       -0.5110481712
 C          7.8996982711        2.1687983532       -0.2782941653
 C          8.5337186330        1.0236294799        0.1895084284
 C          7.7827433499       -0.1213892065        0.4122502892
 C          6.4168653554       -0.1226490261        0.1801855337
 S          5.5872167592       -1.6507923835        0.4779054004
 C          3.8975128020       -1.2389384502        0.2912724757
 C          2.9780837591       -2.2276091686        0.6154083401
 C          1.6189398604       -1.9980610019        0.5241250842
 C          1.1467164005       -0.7447154735        0.0877993070
 C         -0.2827813620       -0.4581563392        0.0357863139
 C         -0.7419964334        0.8565743353        0.2477456874
 C         -2.0789334971        1.1793912667        0.2465951020
 C         -2.9988608900        0.1603541300        0.0203688344
 C         -2.5642853248       -1.1740910627       -0.1731717525
 C         -1.2159899106       -1.4769127095       -0.1738395293
 C         -3.7557862770       -1.9711724558       -0.3066075645
 C         -3.9815017908       -3.3244124511       -0.5089493526
 C         -5.2873883904       -3.7719737338       -0.5897255786
 C         -6.3562344132       -2.8863163589       -0.4886263243
 C         -6.1554634713       -1.5322228117       -0.2892603674
 C         -4.8483127729       -1.0827585592       -0.1803990953
 N         -4.3709426336        0.2020090290        0.0097400100
 C         -5.1518351151        1.3586014204        0.1546377985
 C         -4.8835228212        2.4794194444       -0.6260035016
 C         -5.6468689855        3.6220738825       -0.4756615858
 C         -6.6834210440        3.6535914031        0.4425761992
 C         -6.9533992696        2.5371085269        1.2166061223
 C         -6.1904349386        1.3920994587        1.0802884948
 C          2.0756795769        0.2261580399       -0.2647106076
 C          3.4625850223        0.0264205012       -0.1695029089
 H          6.0343309550        3.0517320866       -0.8704809703
 H          8.4730721276        3.0663328740       -0.4583170185
 H          9.5959789800        1.0164756944        0.3758877846
 H          8.2535157615       -1.0268859380        0.7660750412
 H          3.3456355348       -3.1825241422        0.9615800392
 H          0.9303002543       -2.7685840555        0.8291620590
 H         -0.0218070837        1.6324786971        0.4529684053
 H         -2.4027381632        2.1907547948        0.4396714702
 H         -0.8932456082       -2.4904493431       -0.3530499732
 H         -3.1534154677       -4.0101567299       -0.6026705784
 H         -5.4848998067       -4.8224271835       -0.7411282005
 H         -7.3648665235       -3.2630651856       -0.5693869193
 H         -6.9903436543       -0.8508314335       -0.2296021039
 H         -4.0895382069        2.4418801909       -1.3566842352
 H         -5.4356374927        4.4886497081       -1.0838912734
 H         -7.2787761492        4.5466830388        0.5554626790
 H         -7.7560330923        2.5605117875        1.9383991697
 H         -6.3790985574        0.5297704426        1.7020055988
 H          1.7631665255        1.1833132460       -0.6527285963
