74
 energy: -116.507947751890 gnorm: 0.000079482452 xtb: 6.7.1 (edcfbbe)
C            1.05886962387550        3.99263145207822        0.25487312663156
O            1.64712946721719        2.71865252445235        0.17621786437474
C            0.83587014870130        1.62023422986619        0.15018511040507
C           -0.54343477949828        1.67354541162305        0.19727625137259
C           -1.35106993548476        0.53033465346622        0.16156138846619
C           -2.78120071341684        0.73880449590863        0.17719366032900
C           -3.75069986528782       -0.16198764222123       -0.05309232132385
C           -5.17229506209582        0.11691990001765       -0.07181978923782
C           -5.73716527082651        1.30330009485850        0.40703588634523
C           -7.09722431666763        1.51884328573915        0.35244280112397
C           -7.94133707755374        0.55282172614353       -0.19037815095448
N           -9.31822926422805        0.78998720807639       -0.26607630158625
C           -9.91522511300778        1.96556330573853       -0.63786313225946
N          -11.20664656432935        1.91785503281081       -0.67489449946361
C          -11.53527978050204        0.63946205446155       -0.29479810652893
C          -12.78054360230805        0.04203706038496       -0.14122043640098
C          -12.81348250830943       -1.27019087606299        0.28053980273298
C          -11.64292122694530       -1.97736891319468        0.56068578495891
C          -10.39560586589728       -1.40425346463957        0.41367480592260
C          -10.35230747420873       -0.09339665034838       -0.03516271256958
C           -7.39766208220648       -0.63516079825293       -0.67163950021465
C           -6.03783248303055       -0.84701678827907       -0.60094234961272
C           -0.70721969375031       -0.72583168847141        0.10517186535792
O           -1.49089179844989       -1.84381471605260        0.10262546765981
C           -0.87728616485296       -3.10879404284503        0.13437622641461
C            0.67503492357786       -0.77791773504195        0.06122357741586
C            1.47627585134172        0.36421214364488        0.07339694139170
C            2.91738995832044        0.31567201401053       -0.01393573896709
C            3.69071860454021       -0.77959175214566        0.06937059845772
C            5.13307564737992       -0.81289944630673       -0.05080933177524
C            5.89755517648851        0.28997459042263       -0.44553924548532
C            7.26786883847363        0.20411985124973       -0.56130476189463
C            7.92399260353018       -0.99082169969795       -0.27470540463295
N            9.31351490553708       -1.08996666714866       -0.40314983861025
C           10.00009315069101       -2.13827684604709       -0.95692370968885
N           11.28138742418079       -1.97198966822423       -0.99897022672910
C           11.50837799615883       -0.74232788251716       -0.43041303723386
C           12.70138577115579       -0.06811138408248       -0.19959028420295
C           12.63202035441762        1.16305136524660        0.41714639069532
C           11.41217501865991        1.71422162783484        0.81328382530710
C           10.21518546779653        1.06249623518220        0.59311341768813
C           10.27352633835736       -0.16422049990874       -0.04986652483138
C            7.17921582172059       -2.10111265051032        0.11446419946870
C            5.80820230559799       -2.00899591257289        0.21751075821470
H            0.47821155205009        4.11244664330712        1.17524417107877
H            1.88852954670824        4.69825794511063        0.26109007616068
H            0.41913799568269        4.19653958191628       -0.60998739566123
H           -1.04313006432519        2.62839888422415        0.24999438097651
H           -3.06401768579167        1.76838141111375        0.36016888929041
H           -3.48260324433539       -1.18020164537956       -0.28434458404175
H           -5.10767306551200        2.06162288237968        0.84584888785154
H           -7.51818522822604        2.43404346087069        0.74240601923099
H           -9.33819618875186        2.83169181121557       -0.90030281129226
H          -13.68090962047295        0.59964143876386       -0.34223358259319
H          -13.76480316251385       -1.76495518016590        0.40906203246968
H          -11.71578539264929       -2.99837111598884        0.90516838837509
H           -9.49699505676538       -1.95272100990209        0.65286330846708
H           -8.04305875838561       -1.37688571783640       -1.11709111935824
H           -5.62567905637631       -1.77114881486232       -0.97973846642725
H           -0.28747772575759       -3.29639505630639       -0.76895906254993
H           -1.69455035707559       -3.82752202420116        0.18212426117861
H           -0.24260213437902       -3.22801473530257        1.01824040689741
H            1.16776467069295       -1.73285641839877       -0.00482908900942
H            3.37619660352927        1.28378887115412       -0.14809641701401
H            3.23861393790549       -1.74485242870553        0.25667760523197
H            5.41180435299507        1.22291045099265       -0.68394542160404
H            7.83800276804193        1.05633923220129       -0.89886475519230
H            9.49338565735037       -3.00168055015138       -1.34394136171102
H           13.64110053970440       -0.50778468510375       -0.49216642942775
H           13.54039849347870        1.71431274585801        0.61022539961802
H           11.40557976882133        2.67405158007092        1.30835920424958
H            9.27891233530882        1.48758250825874        0.92204571487221
H            7.68221651332750       -3.02916578405974        0.34290732597426
H            5.24251225083814       -2.87814781971135        0.52179807740072
