74
 energy: -116.450361372024 gnorm: 0.000139833001 xtb: 6.7.1 (edcfbbe)
C            0.49148606167069       -3.13406811327716        1.21063690933797
O            1.24694640676825       -1.99908931211832        0.86783849448298
C            0.59656884907290       -0.85413462903677        0.52881031524520
C           -0.75779534890321       -0.71964458504896        0.49299767514067
C           -1.39652719810014        0.49986355888410        0.13323910183188
C           -2.77984216135137        0.67211737669071        0.08504529271595
C           -3.74731845077715       -0.28447302033624        0.35997010723031
C           -5.14903810909747       -0.08964160645092        0.30844690410924
C           -5.76258473537286        1.13628636341077       -0.03285228925384
C           -7.12772029838696        1.26532426158006       -0.06971121208216
C           -7.95457860456238        0.17793696079314        0.22894593770551
N           -9.34192671329221        0.32425195557166        0.19546582925070
C          -10.05238291946421        1.40363738085156        0.65344621634346
N          -11.33507896603530        1.27942400667241        0.54799754043621
C          -11.53683578171116        0.05041969838405       -0.03101817108536
C          -12.71722993670176       -0.58475390668973       -0.39634812189914
C          -12.61958937027472       -1.82473915428183       -0.99218316724266
C          -11.38204302996628       -2.42150464095856       -1.23788523613190
C          -10.19688592394130       -1.80878479333878       -0.88178419556059
C          -10.28648217584795       -0.57405228232196       -0.25797585820551
C           -7.37220406606414       -1.04271693705136        0.58254372361551
C           -6.00707556844997       -1.16949310158654        0.61826769363600
C           -0.53032306369370        1.61461947663283       -0.19702719198222
O           -1.18050926370492        2.76126719480334       -0.53021387207065
C           -0.42485762267183        3.89862617453574       -0.86474187093442
C            0.82401012555988        1.47941091154152       -0.16358547340423
C            1.46277438380259        0.25918388910667        0.19365684634492
C            2.84612882573533        0.08636409290796        0.23831196404414
C            3.81282841653532        1.03751459517035       -0.05791146239266
C            5.21466662588189        0.84592886063292       -0.00064029529968
C            5.82992518881330       -0.36046063085459        0.40128180584271
C            7.19534974835155       -0.48987962663952        0.43605514134586
C            8.02043812075106        0.57655078043668        0.06691035499306
N            9.40962221184397        0.45220619559283        0.10848643568324
C           10.29241967025106        1.39893833039171        0.56025092630389
N           11.53008477940471        1.02542821984033        0.53834764477368
C           11.51790660445300       -0.24982695180777        0.02842000113955
C           12.56921104886096       -1.11908423537938       -0.23497673960951
C           12.26270903569845       -2.34866473176819       -0.77929742357473
C           10.94695531192099       -2.70945388696039       -1.07362244287640
C            9.88707604903569       -1.86177597236483       -0.81875449915828
C           10.18317310553886       -0.63442228371816       -0.24625167354994
C            7.43610831585496        1.78598511811876       -0.32209744976314
C            6.07130269893486        1.91356036104657       -0.35441165472357
H            1.21718954066595       -3.91258861115997        1.44163113611177
H           -0.13327212535199       -2.94905898891702        2.09022745452259
H           -0.13897308123758       -3.46235680565175        0.37817109480029
H           -1.39097690354827       -1.55331237286067        0.74354308490520
H           -3.10837616229220        1.65964791811683       -0.20004183871591
H           -3.43088053929627       -1.27965838363497        0.64020850588169
H           -5.15081881707065        1.98988289738246       -0.27681875195774
H           -7.57585061287443        2.20798526801423       -0.34842764401084
H           -9.56552236070580        2.25561094533055        1.08794201372451
H          -13.66867837438732       -0.10931589408643       -0.22114156033558
H          -13.51795075137604       -2.34620477174169       -1.28767224506434
H          -11.35075277069653       -3.38581083857703       -1.72315116968074
H           -9.24451935776095       -2.26949005001343       -1.09634045949146
H           -8.00477974907364       -1.87510436155292        0.85154495636366
H           -5.56979770877005       -2.11687759343475        0.89959776493791
H            0.20653329487711        4.21997786061402       -0.03029565558077
H           -1.15043959412852        4.67924954743593       -1.08884746712694
H            0.19894607683953        3.72037401786883       -1.74639769633871
H            1.45711233248156        2.31401105670646       -0.41113888902418
H            3.17537665685276       -0.89777110733849        0.53415083462221
H            3.49537697552069        2.02392770516835       -0.36647181251484
H            5.21910632248399       -1.19716967598124        0.70025440850574
H            7.64374588721135       -1.41146943266457        0.77549975769283
H            9.95943854796567        2.35128751994585        0.92607883371165
H           13.58472611033684       -0.82590746317669       -0.02342989476828
H           13.05628680925965       -3.04852295132827       -0.99542054223857
H           10.75342184324527       -3.67538607239565       -1.51617831667719
H            8.87564676833386       -2.14252815850541       -1.07056227993469
H            8.06855625169017        2.61188765263434       -0.61313722184571
H            5.63295921267914        2.85102370731068       -0.66543761816249
