  82
  -122.827844570000       0.501714198422863      !
 C         -3.8661672213       -5.0878698916       -0.9611770219
 C         -2.5025105372       -4.9469792449       -0.7586149178
 C         -1.9336764836       -3.6894016910       -0.7250574167
 C         -2.7209321340       -2.5493071566       -0.8873025204
 C         -2.0733040715       -1.2480993886       -0.8363010277
 N         -0.7464820272       -1.1340257640       -1.1145241354
 C         -0.4349965519        0.1334934578       -1.0089165996
 C          0.9237882155        0.6195537840       -1.1504299539
 C          1.4156762794        1.7238642528       -0.4556037474
 C          2.7471065508        2.0616030859       -0.5455443528
 C          3.6298440579        1.3150695443       -1.3288063080
 O          4.9288995730        1.7191147159       -1.2794677387
 C          5.9318188680        0.9854846096       -1.9509331174
 C          6.2331236705       -0.4038236777       -1.3787932468
 C          6.6895758297       -0.4105413718        0.0817673329
 C          5.5583894504       -0.1753878639        1.0875376477
 C          4.3891666769       -1.1229936663        0.9812566438
 C          4.4749826614       -2.4032375163        0.4567470454
 C          3.3645283791       -3.2386512825        0.3475508319
 C          2.1172107369       -2.8340563275        0.7726371055
 C          1.9976659281       -1.5719948982        1.3378493186
 C          3.1311560760       -0.7342736854        1.4410487871
 N          2.7602379742        0.4315781267        2.0661217882
 C          1.4204749958        0.3912581390        2.3458013762
 C          0.6166638174        1.3382174900        2.9619815778
 C         -0.7175019965        1.0279685153        3.1430319803
 C         -1.2425307144       -0.1914062215        2.7190573597
 C         -0.4461372088       -1.1384672124        2.1057963862
 C          0.8982147446       -0.8501483028        1.9135810620
 C          3.1308563928        0.2458817457       -2.0661132404
 C          1.7994901199       -0.1005628199       -1.9597008203
 N         -1.5353192573        0.8818218235       -0.6767735505
 C         -1.6165557499        2.2769803075       -0.5386440558
 C         -2.1783939162        2.8348606074        0.6038651052
 C         -2.2697313249        4.2094987739        0.7204241320
 C         -1.8057390089        5.0299595336       -0.2942796970
 C         -1.2480409118        4.4721592626       -1.4333245061
 C         -1.1558890734        3.0991189432       -1.5624192893
 C         -2.5907507553        0.0043617462       -0.5485821611
 C         -3.9344109991        0.4332285339       -0.1866701303
 C         -4.6255557817       -0.2260082855        0.8295494995
 C         -5.8965811807        0.1789488125        1.1875449477
 C         -6.4976150278        1.2461662405        0.5388495110
 C         -5.8221072457        1.9006811261       -0.4772586715
 C         -4.5497906627        1.4997104056       -0.8399830722
 C         -4.0873823669       -2.7004218781       -1.1143619349
 C         -4.6518344693       -3.9619473335       -1.1459140336
 H         -4.3138380692       -6.0707568831       -0.9836760797
 H         -1.8834916132       -5.8230631205       -0.6268152601
 H         -0.8728197372       -3.5580703281       -0.5808356453
 H          0.7695052405        2.2980856830        0.1897052646
 H          3.1391691134        2.9060577015        0.0015161762
 H          6.8196723783        1.6194146948       -1.8625580604
 H          5.6812662201        0.8922944942       -3.0167313377
 H          7.0259139701       -0.8276676909       -2.0000373959
 H          5.3543307622       -1.0401076369       -1.4706633230
 H          7.4471033411        0.3632657705        0.2281208886
 H          7.1635455900       -1.3714599284        0.2915056510
 H          5.1917508507        0.8448536016        0.9612352863
 H          5.9795462554       -0.2465107735        2.0971983037
 H          5.4291418618       -2.7804374274        0.1217988452
 H          3.4942087854       -4.2220766219       -0.0804932460
 H          1.2579079255       -3.4791763186        0.6816126315
 H          3.3588702923        1.2219907804        2.2249127810
 H          1.0194437292        2.2853095405        3.2914746779
 H         -1.3649402239        1.7432230583        3.6305700851
 H         -2.2912458905       -0.3947287588        2.8808331596
 H         -0.8580035458       -2.0804611762        1.7784810840
 H          3.7669519968       -0.3272189802       -2.7208617691
 H          1.4167658335       -0.9528396418       -2.4978708081
 H         -2.5312874025        2.1884227357        1.3912684881
 H         -2.7049020159        4.6413498317        1.6092598479
 H         -1.8795867001        6.1026768639       -0.1989708849
 H         -0.8888755001        5.1084524189       -2.2281574830
 H         -0.7248978249        2.6550343562       -2.4474468817
 H         -4.1555363850       -1.0595141454        1.3295509315
 H         -6.4213701494       -0.3373823028        1.9781764601
 H         -7.4905443261        1.5628172499        0.8213920164
 H         -6.2895571427        2.7265185004       -0.9935034858
 H         -4.0360161441        2.0057422798       -1.6444262942
 H         -4.7055110617       -1.8312416544       -1.2787422853
 H         -5.7130802329       -4.0679802008       -1.3209597262
  82
  -122.827690940000       0.426435087923124      !
 C         -3.8868942075       -5.0528870184       -0.8811454311
 C         -2.5239452027       -4.9107384246       -0.6745751875
 C         -1.9535061617       -3.6535084834       -0.6554696505
 C         -2.7392586915       -2.5148291556       -0.8349909468
 C         -2.0909891142       -1.2136638042       -0.7972389736
 N         -0.7621295489       -1.1057945143       -1.0668585956
 C         -0.4497929190        0.1629188992       -0.9800764350
 C          0.9097133528        0.6459752767       -1.1237916714
 C          1.3981813578        1.7664781137       -0.4525800307
 C          2.7283119518        2.1073902845       -0.5505488091
 C          3.6135159913        1.3479105235       -1.3189347201
 O          4.9094281814        1.7626065733       -1.2847683717
 C          5.9121099157        1.0330253782       -1.9607755251
 C          6.2498190014       -0.3385102813       -1.3662238185
 C          6.7089967121       -0.3056521354        0.0932707696
 C          5.5669124858       -0.1156211724        1.0965653873
 C          4.4466504527       -1.1213160131        0.9981529468
 C          4.6058655565       -2.4088666456        0.5097109431
 C          3.5425001877       -3.3047745349        0.4132496978
 C          2.2708229996       -2.9555717643        0.8153320318
 C          2.0773654519       -1.6854580173        1.3409799842
 C          3.1637391746       -0.7854676232        1.4299494770
 N          2.7241959910        0.3769484243        2.0150500403
 C          1.3846546879        0.2744175163        2.2800980419
 C          0.5250444947        1.1959604779        2.8581933960
 C         -0.7919031663        0.8192904591        3.0397963344
 C         -1.2451984282       -0.4403472855        2.6537880613
 C         -0.3934644919       -1.3614030082        2.0767252602
 C          0.9346640360       -1.0065545925        1.8840422436
 C          3.1196358788        0.2568390758       -2.0269541906
 C          1.7893939228       -0.0917412350       -1.9127257022
 N         -1.5513816739        0.9178480069       -0.6681940036
 C         -1.6302632670        2.3158576925       -0.5609905602
 C         -2.1917436161        2.9013320351        0.5678337490
 C         -2.2816699999        4.2786562248        0.6515198111
 C         -1.8154598944        5.0742905437       -0.3819882001
 C         -1.2570821324        4.4890061615       -1.5069552627
 C         -1.1669242154        3.1131508800       -1.6033051085
 C         -2.6092490321        0.0440724929       -0.5335344869
 C         -3.9537193313        0.4819132571       -0.1854067159
 C         -4.6546889301       -0.1647215628        0.8323020161
 C         -5.9252078118        0.2502915876        1.1802798591
 C         -6.5166404976        1.3157503778        0.5199554885
 C         -5.8323294918        1.9569072431       -0.4987922660
 C         -4.5605490693        1.5455255621       -0.8516626926
 C         -4.1045516949       -2.6675732042       -1.0672490179
 C         -4.6703576228       -3.9287482943       -1.0850388157
 H         -4.3357862683       -6.0354055621       -0.8912301374
 H         -1.9068012993       -5.7859291787       -0.5281223830
 H         -0.8930203039       -3.5211700466       -0.5089502671
 H          0.7497946975        2.3527146533        0.1795762518
 H          3.1175288991        2.9660478329       -0.0236853289
 H          6.7900907849        1.6839284661       -1.9013876108
 H          5.6436097273        0.9143022200       -3.0195431367
 H          7.0515393455       -0.7520610976       -1.9827468680
 H          5.3882740094       -1.0000502282       -1.4437443030
 H          7.4266816589        0.5069684739        0.2295237680
 H          7.2305987968       -1.2388639543        0.3144342138
 H          5.1515392887        0.8843170703        0.9610569153
 H          5.9894547294       -0.1572378116        2.1072534335
 H          5.5821999578       -2.7429047705        0.1932298006
 H          3.7287661770       -4.2916664008        0.0151257982
 H          1.4490102111       -3.6497141075        0.7358589453
 H          3.2749476588        1.2066279667        2.1449673744
 H          0.8733634277        2.1735687591        3.1597431477
 H         -1.4816840181        1.5121025065        3.5009809910
 H         -2.2815641332       -0.6969229444        2.8174398154
 H         -0.7523047807       -2.3343574101        1.7798580501
 H          3.7586836217       -0.3318702303       -2.6647130646
 H          1.4101412375       -0.9587939670       -2.4292878131
 H         -2.5467331175        2.2736003288        1.3696528871
 H         -2.7172484413        4.7322246156        1.5292743648
 H         -1.8876787499        6.1490732351       -0.3120774814
 H         -0.8957555474        5.1057372577       -2.3161234243
 H         -0.7364495171        2.6473362517       -2.4774103087
 H         -4.1929099774       -0.9974573385        1.3409009648
 H         -6.4570870384       -0.2570422095        1.9719930443
 H         -7.5087056335        1.6412212432        0.7954200903
 H         -6.2922332788        2.7810741128       -1.0243597275
 H         -4.0410172448        2.0410775810       -1.6588375551
 H         -4.7208784907       -1.7999485457       -1.2462659859
 H         -5.7306567192       -4.0359043219       -1.2646300975
  82
  -122.825845230000       6.048161032998847E-002 !
 C         -4.6699924244       -4.8047860977       -1.8395912297
 C         -5.3039786617       -3.5735811488       -1.8788633730
 C         -4.5872612315       -2.4106508848       -1.6695275342
 C         -3.2191438586       -2.4658769564       -1.4093645969
 C         -2.4287446818       -1.2648407139       -1.1861668620
 N         -1.1055874608       -1.2327091057       -1.5039039019
 C         -0.6717079524       -0.0274917419       -1.2236397472
 C          0.7143662662        0.3731212021       -1.3778081550
 C          1.4632003682       -0.2246348963       -2.3896995579
 C          2.7942760212        0.0871964260       -2.5731520031
 C          3.4197608365        1.0034515363       -1.7288231835
 O          4.7108283963        1.4234097008       -1.8477622401
 C          5.7135218457        0.5438335365       -2.3234496551
 C          6.2231622058       -0.3680646251       -1.2027612396
 C          5.3042930133       -1.5591263435       -0.9206155182
 C          5.4733603259       -2.0702450438        0.5171618509
 C          4.9516536051       -1.0573579939        1.4973635313
 C          5.7975615718       -0.2296965321        2.2176150704
 C          5.3178229463        0.7463320937        3.0886242739
 C          3.9636100989        0.9255556195        3.2795427100
 C          3.0847967134        0.1041399032        2.5845897426
 C          3.5840572079       -0.8718118690        1.6909400544
 N          2.5253615420       -1.5568985821        1.1493527804
 C          1.3550506042       -1.0722252537        1.6705310307
 C          0.0508636604       -1.4887806788        1.4524789561
 C         -0.9539771734       -0.8353727040        2.1386128244
 C         -0.6724693007        0.2077481139        3.0195003524
 C          0.6250971269        0.6232771721        3.2427427920
 C          1.6546332507       -0.0232656759        2.5708327000
 C          2.6742687501        1.5923560611       -0.7057192225
 C          1.3434342759        1.2837783535       -0.5292042471
 N         -1.6820423836        0.7570870597       -0.7334943843
 C         -1.6174224274        2.1152618074       -0.3802117844
 C         -1.1005843480        3.0383050793       -1.2836021140
 C         -1.0526381050        4.3771695704       -0.9434655452
 C         -1.5261651373        4.8018442517        0.2872641232
 C         -2.0453022422        3.8815961479        1.1825628745
 C         -2.0930013758        2.5392844262        0.8549382387
 C         -2.8122083991       -0.0292745601       -0.6909931404
 C         -4.0970390194        0.4458232067       -0.1973481239
 C         -4.6364864138        1.6543468505       -0.6345814593
 C         -5.8543913705        2.0913379927       -0.1479147358
 C         -6.5501573758        1.3320549939        0.7778266085
 C         -6.0247514092        0.1251408128        1.2114842950
 C         -4.8078014877       -0.3160346721        0.7298533313
 C         -2.5860403513       -3.7078086632       -1.3902200030
 C         -3.3067628556       -4.8670086643       -1.6007505225
 H         -5.2352545618       -5.7109794576       -2.0011342042
 H         -6.3642456514       -3.5187761754       -2.0809559599
 H         -5.0856934279       -1.4545355540       -1.7214426394
 H          0.9776674168       -0.9395528625       -3.0356375400
 H          3.3364601187       -0.3855805492       -3.3781383110
 H          6.5186447550        1.2060082783       -2.6541201696
 H          5.3740014277       -0.0426550201       -3.1828122281
 H          6.2988120034        0.2455742414       -0.3034122246
 H          7.2230644263       -0.7227574669       -1.4592232583
 H          5.5167155896       -2.3648501992       -1.6274876299
 H          4.2655568977       -1.2574984312       -1.0548540013
 H          6.5290519041       -2.2656891086        0.7127101104
 H          4.9291900506       -3.0114346511        0.6314576626
 H          6.8661445882       -0.3509212782        2.1068886311
 H          6.0236111627        1.3655758221        3.6223401391
 H          3.5922635747        1.6782406138        3.9583637050
 H          2.5882611631       -2.2832414917        0.4587731141
 H         -0.1719801855       -2.2915429449        0.7674307175
 H         -1.9793467947       -1.1417102922        1.9922386489
 H         -1.4843541049        0.6877469931        3.5471224305
 H          0.8380912162        1.4274283906        3.9313244742
 H          3.1709414369        2.2861226593       -0.0461783332
 H          0.8039310426        1.7269370700        0.2929414981
 H         -0.7383214330        2.6995859135       -2.2427967656
 H         -0.6503732296        5.0919372139       -1.6454681647
 H         -1.4915315076        5.8490066271        0.5469898315
 H         -2.4150904726        4.2092180911        2.1425480366
 H         -2.4912826500        1.8164210430        1.5483868494
 H         -4.1070122113        2.2451361472       -1.3678987856
 H         -6.2636230194        3.0283903642       -0.4962543334
 H         -7.5005387316        1.6767663415        1.1571091529
 H         -6.5649216549       -0.4724647504        1.9311446886
 H         -4.3980732797       -1.2575278505        1.0648257405
 H         -1.5224687309       -3.7415823016       -1.2116600515
 H         -2.8059211752       -5.8242605715       -1.5792832824
  82
  -122.824265710000       1.136910332402404E-002 !
 C         -4.2891561608       -5.1859123252        0.3364583550
 C         -4.9611744794       -4.0130696100        0.6406205780
 C         -4.2687556252       -2.8247619648        0.7756313693
 C         -2.8864457713       -2.7935708389        0.5996832796
 C         -2.1185843108       -1.5654392816        0.7401956899
 N         -0.8178702606       -1.6054110585        1.1414258483
 C         -0.4004334170       -0.3668845570        1.2141259406
 C          0.9539401222        0.0156564317        1.5722582622
 C          1.6031005668        1.0949626511        0.9810939386
 C          2.8963941950        1.4207187496        1.3379434194
 C          3.5741739616        0.6727383099        2.2955725983
 O          4.8383041447        0.9426063801        2.7426639157
 C          5.7787906830        1.4696005515        1.8240933590
 C          6.0646166501        0.4791725018        0.6821449035
 C          5.7796075139        1.0236561264       -0.7170900194
 C          5.5873536861       -0.1254935852       -1.7182929990
 C          4.3150603882       -0.8745609066       -1.4315492128
 C          4.3036189794       -2.0769383831       -0.7423622187
 C          3.1200937541       -2.7413747205       -0.4279828866
 C          1.8949850290       -2.2415336607       -0.8165031274
 C          1.8701553434       -1.0511160897       -1.5304281159
 C          3.0746676657       -0.3668752886       -1.8084803572
 N          2.7794567199        0.7917017449       -2.4876538581
 C          1.4263229393        0.8649438347       -2.6921714561
 C          0.6824296488        1.8306983932       -3.3526874735
 C         -0.6829562208        1.6378314737       -3.4439778592
 C         -1.2954866155        0.5140234887       -2.8912254389
 C         -0.5595616550       -0.4441844679       -2.2211168590
 C          0.8132647500       -0.2703267095       -2.1107218678
 C          2.9273649224       -0.4156893139        2.8817844049
 C          1.6399556589       -0.7423373107        2.5206793387
 N         -1.3991407787        0.5105784289        0.8785552915
 C         -1.3368675480        1.9135664036        0.9186488408
 C         -1.7176329275        2.6674180434       -0.1851201683
 C         -1.6610251150        4.0475309810       -0.1229478291
 C         -1.2275132346        4.6795035954        1.0305952422
 C         -0.8483792423        3.9260230244        2.1297355738
 C         -0.9052601128        2.5458742197        2.0806300119
 C         -2.5045095822       -0.2467903088        0.5579595882
 C         -3.7627001704        0.3272100224        0.1052100860
 C         -4.3517351648        1.4009048360        0.7704293336
 C         -5.5396056026        1.9393493715        0.3114786678
 C         -6.1564912381        1.4160182752       -0.8122295826
 C         -5.5837661942        0.3401627436       -1.4722578998
 C         -4.3969035997       -0.2014465438       -1.0193660858
 C         -2.2160423027       -3.9818130456        0.3123781838
 C         -2.9128661639       -5.1668264204        0.1792482830
 H         -4.8355034944       -6.1117467496        0.2310177098
 H         -6.0328224792       -4.0258489205        0.7797567076
 H         -4.7979146226       -1.9194044840        1.0311035260
 H          1.1061583999        1.6779407538        0.2200830752
 H          3.3655691869        2.2731961663        0.8720947968
 H          6.6691971866        1.6415825311        2.4325960570
 H          5.4474432697        2.4387662851        1.4321184238
 H          5.4247168458       -0.3898061810        0.8472014765
 H          7.0998519407        0.1396767160        0.7325195733
 H          6.6013637949        1.6660732868       -1.0420931333
 H          4.8681561637        1.6222437591       -0.7009522956
 H          6.4385296617       -0.8050748168       -1.6530487097
 H          5.5589038147        0.2790347606       -2.7336455546
 H          5.2452711084       -2.5157201256       -0.4429016684
 H          3.1711787294       -3.6659581503        0.1271059963
 H          0.9772406576       -2.7455721545       -0.5621996759
 H          3.4543515381        1.4490570301       -2.8360300792
 H          1.1546121833        2.6975926135       -3.7920188078
 H         -1.2881127881        2.3695610195       -3.9596828607
 H         -2.3645533897        0.3950547035       -2.9949463908
 H         -1.0354715280       -1.3147007328       -1.7972520309
 H          3.4609512827       -0.9919363036        3.6213829855
 H          1.1437992268       -1.5923556730        2.9614657329
 H         -2.0431961260        2.1694199244       -1.0841232984
 H         -1.9562660441        4.6309955867       -0.9821086916
 H         -1.1858347694        5.7573431775        1.0743587021
 H         -0.5122906734        4.4144089700        3.0320366286
 H         -0.6149284631        1.9514815959        2.9340596132
 H         -3.8862572356        1.8054706369        1.6572618433
 H         -5.9872084353        2.7706252998        0.8364633500
 H         -7.0826958319        1.8407068315       -1.1696645201
 H         -6.0638348265       -0.0753065147       -2.3463589913
 H         -3.9497078780       -1.0410594832       -1.5301235634
 H         -1.1432222478       -3.9557302374        0.2021992574
 H         -2.3824965941       -6.0806118614       -0.0470673638
