  82
  -122.286051254600       0.672726984549331      !
 C         -5.0489728303       -4.7721670035        0.1148478591
 C         -5.6244704117       -3.5681767777       -0.2573839861
 C         -4.8363744789       -2.4543189475       -0.4767870442
 C         -3.4537330555       -2.5298379655       -0.3184223036
 C         -2.5892323549       -1.3811088871       -0.5422440776
 N         -1.3028528505       -1.5473395701       -0.9549539380
 C         -0.7871035553       -0.3503792882       -1.0986100072
 C          0.5951371836       -0.1215615051       -1.4761193851
 C          1.2136143380       -1.0549857518       -2.3056941327
 C          2.5341262691       -0.9152561925       -2.6790302508
 C          3.2810030248        0.1658426423       -2.2131480144
 O          4.5731054294        0.4309461184       -2.5560158110
 C          5.4822568028       -0.6247717970       -2.8094529088
 C          6.0535954551       -1.1852058268       -1.5030379973
 C          5.1105687688       -2.1600485260       -0.7938573441
 C          5.3929573715       -2.2174511464        0.7141186045
 C          5.0169935729       -0.9168470975        1.3668005658
 C          5.9668355432        0.0256171541        1.7258373731
 C          5.6203140591        1.2546485186        2.2833701756
 C          4.3008908271        1.5849436539        2.5124789182
 C          3.3210707328        0.6586267652        2.1779853057
 C          3.6848215998       -0.5787323518        1.5974851845
 N          2.5474380390       -1.3151908244        1.3795754634
 C          1.4572316260       -0.6077010017        1.8120923100
 C          0.1197556762       -0.9717979723        1.8357607193
 C         -0.7820042384       -0.0660949403        2.3591705417
 C         -0.3675469976        1.1724368202        2.8465870309
 C          0.9637984169        1.5376468272        2.8286633792
 C          1.8918086277        0.6409594705        2.3146844992
 C          2.6665083148        1.0940498612       -1.3704521526
 C          1.3457221204        0.9552650891       -1.0047189826
 N         -1.7069790222        0.6201903420       -0.8012789562
 C         -1.5440280363        2.0124097937       -0.8950603716
 C         -1.0733574797        2.5728495661       -2.0781161854
 C         -0.9291701350        3.9439705978       -2.1770453480
 C         -1.2610741758        4.7594825082       -1.1074416907
 C         -1.7346775697        4.1993898561        0.0672564862
 C         -1.8775769278        2.8288108723        0.1790906945
 C         -2.8639218378       -0.0281206163       -0.4289586665
 C         -4.0710944442        0.6704538626       -0.0107230762
 C         -4.5920516355        1.7239359181       -0.7600461323
 C         -5.7351731267        2.3791826280       -0.3416883342
 C         -6.3737849676        1.9944361163        0.8252491454
 C         -5.8670559517        0.9424412708        1.5717642550
 C         -4.7245975732        0.2848377420        1.1595534382
 C         -2.8815642973       -3.7501056640        0.0381595061
 C         -3.6735797303       -4.8604885391        0.2555763751
 H         -5.6696639866       -5.6391292912        0.2878296566
 H         -6.6954672703       -3.4984019048       -0.3843024019
 H         -5.2914159061       -1.5254389842       -0.7856651296
 H          0.6345892868       -1.8947751109       -2.6572188750
 H          2.9730494128       -1.6511844886       -3.3357193985
 H          6.2823454665       -0.1581461313       -3.3909680807
 H          5.0339322996       -1.4190190984       -3.4143688840
 H          6.2447268463       -0.3331219769       -0.8484189438
 H          7.0060911317       -1.6754709199       -1.7122659929
 H          5.2152555826       -3.1571112885       -1.2284709465
 H          4.0792679507       -1.8368807232       -0.9351134216
 H          6.4520805950       -2.4223498242        0.8790329512
 H          4.8181660973       -3.0347292125        1.1576208613
 H          7.0127774071       -0.2036186107        1.5765657151
 H          6.4029434664        1.9527274028        2.5414970992
 H          4.0329724171        2.5350229680        2.9492854056
 H          2.5088178417       -2.2206991473        0.9471476454
 H         -0.2060551944       -1.9266639704        1.4543738724
 H         -1.8301224483       -0.3245934299        2.3949158417
 H         -1.1010065108        1.8505349578        3.2590927580
 H          1.2802234340        2.4956531077        3.2137212610
 H          3.2569133829        1.9170961899       -1.0003080840
 H          0.9097090960        1.6681402389       -0.3227522119
 H         -0.8218004031        1.9304283982       -2.9087987678
 H         -0.5629039544        4.3770475194       -3.0956371816
 H         -1.1517589982        5.8301581623       -1.1905669449
 H         -1.9941682875        4.8320875110        0.9027259526
 H         -2.2410926867        2.3851321975        1.0917987236
 H         -4.1082337530        2.0202121760       -1.6794317211
 H         -6.1310192771        3.1924862753       -0.9322145124
 H         -7.2656797895        2.5091239248        1.1500967552
 H         -6.3631490677        0.6363175181        2.4811636469
 H         -4.3297579483       -0.5368113272        1.7387663542
 H         -1.8085499565       -3.8073777682        0.1359809614
 H         -3.2191326217       -5.7999532060        0.5357877421
  82
  -122.284705851000       0.162007143313631      !
 C         -4.1630845970       -4.7864414211        1.0838524954
 C         -2.7819708498       -4.6822385429        1.1304792625
 C         -2.1594835757       -3.5267697775        0.7017668042
 C         -2.9096429491       -2.4511402542        0.2258386705
 C         -2.2061268927       -1.2536678435       -0.2052470657
 N         -0.9050586754       -1.3300963150       -0.5945778393
 C         -0.5324646650       -0.1242557387       -0.9436354953
 C          0.8268040959        0.1919398356       -1.3369084671
 C          1.4231527351        1.4300276046       -1.0999282079
 C          2.7514699317        1.6282708295       -1.4021523559
 C          3.5276754634        0.6046497656       -1.9503471180
 O          4.8374826393        0.9168856634       -2.1489483856
 C          5.7404772765       -0.0574755853       -2.6283917027
 C          6.0740503609       -1.1907265557       -1.6521128188
 C          6.6691351864       -0.7302955835       -0.3194742141
 C          5.6353220665       -0.1531116397        0.6527178270
 C          4.4691534533       -1.0571192318        0.9672256694
 C          4.5271157684       -2.4408816207        0.9076128138
 C          3.4223777943       -3.2443959468        1.1844166466
 C          2.2099908400       -2.6976609795        1.5476994534
 C          2.1207203294       -1.3162271613        1.6506164337
 C          3.2478143964       -0.5128336479        1.3636948906
 N          2.9147803469        0.8027731731        1.5758716125
 C          1.6028844435        0.8835557439        1.9599773894
 C          0.8411493821        1.9985283948        2.2745581213
 C         -0.4677225348        1.7919792924        2.6662248746
 C         -1.0082198648        0.5099848314        2.7405152997
 C         -0.2542016540       -0.6036478138        2.4273465141
 C          1.0638270756       -0.4220320279        2.0313850212
 C          2.9237369774       -0.6168540832       -2.2311187204
 C          1.5965097655       -0.8172021632       -1.9110740095
 N         -1.5669347319        0.7658729503       -0.8086207135
 C         -1.5760831258        2.1279394136       -1.1504353146
 C         -2.0038381976        3.0782148306       -0.2304967626
 C         -2.0270562344        4.4140486957       -0.5870368623
 C         -1.6265829026        4.8072403994       -1.8533488443
 C         -1.2015439224        3.8585821660       -2.7694732063
 C         -1.1792216588        2.5201169350       -2.4253772305
 C         -2.6435781006        0.0560022636       -0.3211549744
 C         -3.9296773172        0.6746394950       -0.0317855804
 C         -4.5588296363        0.4338848341        1.1894558309
 C         -5.7723521037        1.0256903592        1.4804406492
 C         -6.3774451404        1.8663657029        0.5594896660
 C         -5.7651925533        2.1027777504       -0.6597177729
 C         -4.5507204381        1.5127721519       -0.9565826306
 C         -4.2959477976       -2.5733264594        0.1585412747
 C         -4.9138703326       -3.7324365649        0.5894135722
 H         -4.6521808645       -5.6876843331        1.4236973527
 H         -2.1914591013       -5.5072166430        1.5032806664
 H         -1.0852761712       -3.4296216950        0.7176522807
 H          0.8623795968        2.2300526848       -0.6425514862
 H          3.2244515609        2.5799448254       -1.2098694177
 H          6.6469527615        0.5155243884       -2.8475386537
 H          5.3690202704       -0.4857903725       -3.5695306566
 H          6.7961284201       -1.8331889988       -2.1617457690
 H          5.1817710438       -1.7806770954       -1.4479063517
 H          7.4302338968        0.0312547162       -0.5059110967
 H          7.1691643640       -1.5798375924        0.1496904686
 H          5.2518229725        0.7791950591        0.2349779649
 H          6.1486947688        0.0974981683        1.5883499190
 H          5.4544050368       -2.9254812484        0.6425308280
 H          3.5284657619       -4.3170458072        1.1114726058
 H          1.3556674763       -3.3218606511        1.7575379239
 H          3.5099615578        1.5901689708        1.3905577161
 H          1.2573492409        2.9943544964        2.2190213210
 H         -1.0811961890        2.6416686161        2.9310938475
 H         -2.0345954633        0.3916956692        3.0555194978
 H         -0.6802302965       -1.5928520992        2.4866022226
 H          3.4745902959       -1.4203352783       -2.6922864089
 H          1.1340502625       -1.7742599200       -2.0916871655
 H         -2.3083066172        2.7628008393        0.7547907929
 H         -2.3587290760        5.1512996324        0.1287564757
 H         -1.6463033073        5.8512469233       -2.1270683888
 H         -0.8919279715        4.1608200787       -3.7586432962
 H         -0.8528020415        1.7727921595       -3.1334079842
 H         -4.0870748121       -0.2255028025        1.9022088698
 H         -6.2486153490        0.8333950304        2.4308556579
 H         -7.3245935347        2.3309922928        0.7897879856
 H         -6.2370376481        2.7485607964       -1.3858790105
 H         -4.0886892166        1.6898974569       -1.9168795407
 H         -4.8890232008       -1.7658620023       -0.2426333242
 H         -5.9899279957       -3.8162318935        0.5342060970
  82
  -122.284592603500       0.143710737003626      !
 C         -4.1785860593       -4.8321732060        0.9731654207
 C         -2.7965990193       -4.7388878867        1.0161863777
 C         -2.1679725950       -3.5779357859        0.6121831243
 C         -2.9120442687       -2.4865540328        0.1636815152
 C         -2.2013221461       -1.2847753377       -0.2434633578
 N         -0.9035891392       -1.3614185714       -0.6445774118
 C         -0.5233991245       -0.1496306135       -0.9636489217
 C          0.8369974528        0.1662008741       -1.3537108889
 C          1.4455877438        1.3900100244       -1.0777616953
 C          2.7767015835        1.5829378977       -1.3706408189
 C          3.5432688119        0.5682878491       -1.9476131656
 O          4.8587805521        0.8692275128       -2.1267673071
 C          5.7562261878       -0.1079676805       -2.6111296563
 C          6.0448244627       -1.2738010641       -1.6593682944
 C          6.6391355614       -0.8671528025       -0.3091600078
 C          5.6226745467       -0.2509778952        0.6570641962
 C          4.4048815915       -1.0949381418        0.9417495013
 C          4.3786940530       -2.4769461950        0.8375047345
 C          3.2243875962       -3.2197469881        1.0799346673
 C          2.0445445464       -2.6118935684        1.4523340711
 C          2.0402578986       -1.2321403516        1.6033888426
 C          3.2169982918       -0.4907171620        1.3527884098
 N          2.9639883081        0.8349547131        1.6098622716
 C          1.6570401515        0.9830068017        1.9903597177
 C          0.9623712089        2.1307553066        2.3405466586
 C         -0.3613692563        1.9920238691        2.7113523522
 C         -0.9822694740        0.7444634195        2.7303319836
 C         -0.2946985686       -0.4019301802        2.3835119691
 C          1.0370487073       -0.2881945912        2.0081853006
 C          2.9251958266       -0.6346676092       -2.2741965414
 C          1.5953194503       -0.8308171051       -1.9630088300
 N         -1.5497008333        0.7449087351       -0.7977315918
 C         -1.5507451482        2.1172897012       -1.0955834238
 C         -1.9726144498        3.0388268972       -0.1442605417
 C         -1.9867575808        4.3858871933       -0.4553668714
 C         -1.5842415256        4.8188575859       -1.7077989264
 C         -1.1661504536        3.8987683938       -2.6555473745
 C         -1.1523302436        2.5493239755       -2.3568737953
 C         -2.6284161629        0.0307762998       -0.3216087412
 C         -3.9089791873        0.6495535338       -0.0091940080
 C         -4.5295110925        0.3871116049        1.2118878972
 C         -5.7393760082        0.9765423856        1.5224596238
 C         -6.3486769569        1.8357919338        0.6216582797
 C         -5.7439053894        2.0949618265       -0.5966432657
 C         -4.5330230013        1.5077687088       -0.9130355564
 C         -4.2996572728       -2.5968345276        0.1008624175
 C         -4.9239216948       -3.7612481381        0.5076585097
 H         -4.6726115374       -5.7381666871        1.2926914339
 H         -2.2101585257       -5.5764139763        1.3664950014
 H         -1.0931100057       -3.4888396108        0.6262247886
 H          0.8927129785        2.1811160920       -0.5959197430
 H          3.2594298787        2.5223945593       -1.1459489250
 H          6.6776252347        0.4539773770       -2.7933463078
 H          5.3999281047       -0.5039942359       -3.5721715476
 H          6.7529459830       -1.9258479984       -2.1765754168
 H          5.1319844691       -1.8397310338       -1.4804247869
 H          7.4432118905       -0.1449192450       -0.4700473366
 H          7.0848448449       -1.7504174150        0.1525637486
 H          5.2945424069        0.7060722399        0.2476095162
 H          6.1353544476       -0.0408913772        1.6030394269
 H          5.2770731653       -3.0091707217        0.5644811581
 H          3.2652383849       -4.2938327724        0.9711455153
 H          1.1507426298       -3.1874140809        1.6333336650
 H          3.6120802175        1.5886937665        1.4677999216
 H          1.4396622498        3.1001742214        2.3263712454
 H         -0.9240033870        2.8687427599        2.9999100498
 H         -2.0189835007        0.6798531363        3.0275936904
 H         -0.7805707293       -1.3651614655        2.3988595762
 H          3.4671967678       -1.4268441527       -2.7645525335
 H          1.1223602031       -1.7756756099       -2.1775608113
 H         -2.2783090956        2.6930391850        0.8301118017
 H         -2.3131509988        5.1006176743        0.2852581839
 H         -1.5974152588        5.8715797187       -1.9462570692
 H         -0.8554194361        4.2321823636       -3.6342759347
 H         -0.8303071215        1.8244644573       -3.0897572811
 H         -4.0536782942       -0.2860472978        1.9090908258
 H         -6.2094658153        0.7681265034        2.4725532318
 H         -7.2935361086        2.2974198294        0.8669083359
 H         -6.2191147314        2.7556756951       -1.3070366415
 H         -4.0757056850        1.7030083531       -1.8721516936
 H         -4.8886826612       -1.7759050280       -0.2782181713
 H         -6.0009389532       -3.8357476555        0.4565685753
  82
  -122.282799749900       2.155513513341203E-002 !
 C         -4.5128264920       -3.5682821853        3.5079211422
 C         -5.1260176683       -2.4434557851        2.9802418232
 C         -4.3784747321       -1.4769101362        2.3347064562
 C         -2.9992915777       -1.6282872136        2.2018533194
 C         -2.1745029547       -0.6310943712        1.5362766939
 N         -0.8704158120       -0.4640195169        1.8910768359
 C         -0.3963060528        0.5136522751        1.1611011377
 C          0.9797453361        0.9748289199        1.2132809143
 C          1.6670533999        1.3950367948        0.0789002803
 C          2.9795093101        1.8146032698        0.1654476847
 C          3.6386765614        1.8228608716        1.3907411766
 O          4.9209823690        2.2586243694        1.5819126464
 C          5.8688734359        2.0324203027        0.5541267258
 C          6.0905968646        0.5289429529        0.3152019260
 C          5.8071924759        0.0641745368       -1.1128118227
 C          5.5465667303       -1.4493063172       -1.1497431841
 C          4.2466920117       -1.7827135401       -0.4706118076
 C          4.1924378504       -2.2635382189        0.8281126932
 C          2.9855117063       -2.5183671054        1.4757495444
 C          1.7779267526       -2.3279674439        0.8376531571
 C          1.7949993451       -1.8705017758       -0.4730081588
 C          3.0243882844       -1.5781868660       -1.1050708827
 N          2.7705341223       -1.1106418746       -2.3730167155
 C          1.4188694425       -1.1239388300       -2.5988234117
 C          0.7084542939       -0.7720151050       -3.7362769328
 C         -0.6655815294       -0.9164369512       -3.7050032621
 C         -1.3189524106       -1.3970245713       -2.5710653710
 C         -0.6159955874       -1.7366593481       -1.4311998230
 C          0.7649318915       -1.5949320800       -1.4355116678
 C          2.9532226116        1.3923800257        2.5271918054
 C          1.6465330272        0.9691392213        2.4380405523
 N         -1.3598121935        1.0173416408        0.3256860994
 C         -1.2335687079        2.1164221471       -0.5403077390
 C         -1.5982365002        2.0056774042       -1.8768456538
 C         -1.4783171682        3.1015955725       -2.7113300976
 C         -0.9975355302        4.3048811547       -2.2225189097
 C         -0.6345576164        4.4130226436       -0.8898008315
 C         -0.7545335299        3.3254508621       -0.0452589953
 C         -2.5034533353        0.2813527738        0.5462184734
 C         -3.7418024321        0.4890411238       -0.1892127688
 C         -4.2705675000        1.7650877124       -0.3747175704
 C         -5.4403874421        1.9383422536       -1.0910265647
 C         -6.0989254797        0.8458078986       -1.6293943683
 C         -5.5864625324       -0.4278345303       -1.4387817470
 C         -4.4178932005       -0.6073481648       -0.7251186577
 C         -2.3881280351       -2.7540665116        2.7523119163
 C         -3.1398907161       -3.7166816404        3.3971132405
 H         -5.1021183246       -4.3211863212        4.0105671590
 H         -6.1946811193       -2.3156053680        3.0780391045
 H         -4.8618663260       -0.5949134627        1.9430920154
 H          1.1843376894        1.3778167171       -0.8868333950
 H          3.4788831964        2.1491639728       -0.7304053813
 H          6.7761575865        2.5133377437        0.9259209719
 H          5.5751554851        2.5400851436       -0.3725468154
 H          5.4149375807       -0.0030091939        0.9877722409
 H          7.1101357668        0.2537790453        0.5878415302
 H          6.6515975539        0.3117270764       -1.7603517996
 H          4.9241059110        0.5750368019       -1.4981545390
 H          6.3671456402       -1.9674882994       -0.6510191170
 H          5.5195001992       -1.7874272678       -2.1891348406
 H          5.1181687264       -2.4512282481        1.3541446020
 H          3.0040246521       -2.8747394637        2.4946920719
 H          0.8427172694       -2.5102542547        1.3407779139
 H          3.4685332791       -0.8599237648       -3.0504402053
 H          1.2119254105       -0.4095629614       -4.6209346264
 H         -1.2455784602       -0.6576656061       -4.5792087294
 H         -2.3938819300       -1.5061563052       -2.5918540324
 H         -1.1236111062       -2.1116180163       -0.5561668812
 H          3.4724871953        1.3993992634        3.4727583445
 H          1.1199023662        0.6216515316        3.3126304670
 H         -1.9609005618        1.0631495238       -2.2540937471
 H         -1.7611794276        3.0127909325       -3.7495296055
 H         -0.9064890101        5.1578190141       -2.8779561978
 H         -0.2617596165        5.3498097433       -0.5036983416
 H         -0.4771640060        3.4024277412        0.9954512669
 H         -3.7725742436        2.6218066548        0.0552248216
 H         -5.8411719063        2.9322726768       -1.2268610540
 H         -7.0108295794        0.9848878568       -2.1906988596
 H         -6.0993098986       -1.2841087730       -1.8522008017
 H         -4.0176548452       -1.5985514662       -0.5730253425
 H         -1.3172103363       -2.8532349282        2.6682673654
 H         -2.6551847098       -4.5865409970        3.8165405547
