  75
       -113.26236869
 C          5.5078414316       -4.5354728425        0.3646745271
 C          4.4731264518       -4.0286921402        1.1337813934
 C          4.0247111128       -2.7367309831        0.9412868831
 C          4.6046365217       -1.9294105092       -0.0376456060
 N          4.1505893445       -0.6223569291       -0.2380374823
 C          5.0484949959        0.3943613559       -0.5787111812
 C          4.6685274525        1.4047550254       -1.4626181796
 C          5.5534559802        2.4130801177       -1.7901788114
 C          6.8303061851        2.4289913453       -1.2531188783
 C          7.2144780295        1.4261151705       -0.3780747814
 C          6.3336768639        0.4184127827       -0.0368954174
 C          2.7883088779       -0.3246176283       -0.0982063622
 C          1.8234498702       -1.2265701759       -0.5515726897
 C          0.4721398654       -0.9495329362       -0.4250421460
 C          0.0872027948        0.2425136152        0.1482486050
 C          1.0483749323        1.1554874597        0.6048224667
 C          2.3967342387        0.8780493537        0.4916024283
 C          0.3596500344        2.3093385809        1.1628909567
 C          0.8468972335        3.4706703807        1.7385315704
 C         -0.0597692022        4.4150928939        2.1928936152
 C         -1.4252890233        4.2058032581        2.0742634767
 C         -1.9188806059        3.0440453388        1.4957070679
 C         -1.0216538963        2.1023064992        1.0436187007
 C         -1.3142481160        0.7700442077        0.3800729058
 C         -2.0253746426        0.9826747936       -0.9349968214
 C         -1.4273737938        1.7900576306       -1.8904846860
 C         -2.0359716345        2.0358419127       -3.1070840209
 C         -3.2716245527        1.4703241590       -3.3700021942
 C         -3.8820688261        0.6639960952       -2.4312561675
 C         -3.2659787958        0.3993593995       -1.2049614184
 N         -3.8861986269       -0.4166135615       -0.2718073997
 C         -5.1543475633       -0.9812128979       -0.5821359832
 C         -5.2354714268       -2.1073601346       -1.3916554531
 C         -6.4716189491       -2.6502114704       -1.6938514619
 C         -7.6259241723       -2.0759098255       -1.1876775192
 C         -7.5449071015       -0.9546766270       -0.3784834839
 C         -6.3122861262       -0.4043807873       -0.0757621190
 C         -3.3105428626       -0.6912225723        0.9588295826
 C         -3.9498839969       -1.5456722043        1.8612919213
 C         -3.3883898995       -1.8236280807        3.0908279309
 C         -2.1748848978       -1.2612098082        3.4476274597
 C         -1.5297720904       -0.4269303552        2.5539053234
 C         -2.0784149062       -0.1362840291        1.3140963897
 C          5.6417033940       -2.4472358264       -0.8138005656
 C          6.0888496123       -3.7375410998       -0.6073205958
 H          5.8583527340       -5.5443715420        0.5210357529
 H          4.0161884961       -4.6414903535        1.8971157834
 H          3.2236243296       -2.3420199583        1.5490773888
 H          3.6769753529        1.3897157303       -1.8911255250
 H          5.2458948104        3.1878901216       -2.4772200393
 H          7.5204112172        3.2169702457       -1.5143499781
 H          8.2061121746        1.4330179123        0.0502912359
 H          6.6328444913       -0.3556923829        0.6546040599
 H          2.1443477854       -2.1502094302       -1.0102148072
 H         -0.2644693368       -1.6547702419       -0.7812061391
 H          3.1418147637        1.5726698248        0.8500432281
 H          1.9099299079        3.6374693737        1.8314260717
 H          0.3013816634        5.3271882731        2.6456226885
 H         -2.1131116995        4.9560334419        2.4359859501
 H         -2.9830085647        2.8821829199        1.4021207308
 H         -0.4675286717        2.2336400585       -1.6683100466
 H         -1.5541746281        2.6660859803       -3.8385712369
 H         -3.7675713201        1.6576359286       -4.3109040369
 H         -4.8490214285        0.2350821408       -2.6458765444
 H         -4.3287463950       -2.5462932618       -1.7807803401
 H         -6.5334740999       -3.5251063353       -2.3234237405
 H         -8.5892833839       -2.5025960417       -1.4233706124
 H         -8.4441816975       -0.5057221568        0.0165514116
 H         -6.2366620658        0.4693222921        0.5548757002
 H         -4.8929213905       -1.9967363327        1.5919963763
 H         -3.9034500999       -2.4853363639        3.7713887351
 H         -1.7334965980       -1.4731062556        4.4093036829
 H         -0.5785198894        0.0132820070        2.8167016898
 H          6.0895913522       -1.8317030039       -1.5802758049
 H          6.8920710109       -4.1255811476       -1.2165821397
