63
 energy: -92.157478741746 gnorm: 0.000044470797 xtb: 6.7.1 (edcfbbe)
C            0.43821188233623        1.40619128280598        2.89026684704300
C            1.95026281709872        1.44128435279691        2.70217553632244
C            2.55167708044566        0.03808934024482        2.68102859381597
C            4.06756032759239        0.07503405263093        2.49452433213575
C            4.71164633933881       -1.31386947282502        2.46217870275236
C            4.40208084793253       -2.10161727209318        1.18666915341822
C            5.15310985118057       -1.55949791476337       -0.03398075249864
C            4.33403868041819       -1.67477287424118       -1.33018794674966
N            3.17572525933291       -0.82909660723246       -1.28382815036752
C            3.22276636615496        0.55333843167975       -1.38940255930270
C            4.29751541487958        1.37025178694992       -1.67085280454026
C            4.06806545156753        2.75993538641254       -1.71830177187170
C            2.80863156835158        3.27901418391781       -1.49436478314065
C            1.71519314979088        2.45500662573718       -1.21775515791651
C            1.92100574584054        1.07545468626170       -1.16804506728796
C            1.06666169375093       -0.03935622132381       -0.92723351122055
C           -0.28755053557720       -0.16403204900784       -0.66279601107890
C           -0.82103182520196       -1.45201913762083       -0.47202454293955
N           -2.13741788901923       -1.67000864876590       -0.21751838399645
C           -3.21918129993299       -0.83323583373944       -0.12676544189848
N           -3.11253386527110        0.49212315224959       -0.28530242307184
C           -4.24991551381421        1.14655395754810       -0.18056603585743
O           -4.26365483084008        2.47084476527459       -0.32640749225092
C           -3.01779723005642        3.09540796011173       -0.59330731144882
N           -5.45401310262750        0.60732150344799        0.06432943247494
C           -5.43239445054976       -0.71972066362768        0.20816074935933
O           -6.57788070511458       -1.35372928107421        0.45704906615993
C           -7.74699233403059       -0.55292832619048        0.54717741000991
N           -4.36969086326341       -1.49302077874947        0.12610850026319
C            0.02016183508730       -2.60824709698351       -0.54382041668226
C            1.37056905651836       -2.49326353872039       -0.81438860341099
C            1.90420867958945       -1.21797958770588       -1.00429478170765
H            0.03025140887154        2.41470758601127        2.90117681994321
H           -0.03267514247522        0.85159655116909        2.08040152995711
H            0.17917813873352        0.92254046428012        3.83054819921705
H            2.40271232030770        2.01947205692861        3.51165905069216
H            2.18390001927972        1.94494589000005        1.76130860620015
H            2.08321381783451       -0.52315644494255        1.87029719040513
H            2.31273115910735       -0.47243719289201        3.61761353504723
H            4.50464551821100        0.64228199126928        3.32017296418179
H            4.29347591401378        0.61821511293271        1.57461543830016
H            4.35581103580200       -1.88206139330205        3.32455718485820
H            5.79473282461664       -1.20931998710071        2.56119963807834
H            4.66518636143010       -3.14981130577191        1.34101849608620
H            3.32693189850586       -2.06184274301586        1.01144844489087
H            6.09040194047850       -2.09980479350050       -0.17049506078976
H            5.39562544218033       -0.50849399160674        0.12237458700770
H            4.01359507044462       -2.70650758735795       -1.48168852842649
H            4.95235622128534       -1.37133190085608       -2.18028615979313
H            5.28526497217011        0.98076310838185       -1.85858602517465
H            4.89431775968398        3.41934471430564       -1.93393164732582
H            2.66070778253581        4.34860552533706       -1.53461631822271
H            0.73642851056150        2.87191131369061       -1.04279531667402
H           -0.93817428356228        0.68948638709135       -0.60261341281819
H           -2.42741979353788       -2.62852991446495       -0.08151083591544
H           -2.31915209167055        2.92361963261388        0.22829121296614
H           -3.23814787214495        4.15619695624177       -0.68992737066792
H           -2.58401688594197        2.70850485080081       -1.51833850859429
H           -8.55638378749307       -1.24602756573865        0.76576077311278
H           -7.92935169674806       -0.03065953151435       -0.39404046251726
H           -7.64628742541021        0.18795355041585        1.34258406985019
H           -0.42317277422306       -3.57963487527143       -0.39211073373864
H            1.98169161170280       -3.37976732257904       -0.87274735075910
