  63
        -92.11808141
 C          0.4215363779        1.5614069051        2.5517782350
 C          1.9445100116        1.5474405714        2.5058743309
 C          2.4952692743        0.1244274994        2.5433714302
 C          4.0183112075        0.1129249627        2.4340804979
 C          4.6217510855       -1.2937992733        2.4630180021
 C          4.3424494644       -2.1066224892        1.1967710853
 C          5.1331110498       -1.5939239407       -0.0112332333
 C          4.3343451928       -1.6899908103       -1.3204864960
 N          3.1709293867       -0.8552650085       -1.2757939462
 C          3.2132762613        0.5355102222       -1.3092843103
 C          4.2892576282        1.3641653238       -1.5133834124
 C          4.0548063377        2.7639142778       -1.4862445236
 C          2.7894877422        3.2617057064       -1.2682008038
 C          1.6904852747        2.4219509309       -1.0709552560
 C          1.9014279381        1.0355246873       -1.0974871693
 C          1.0529711909       -0.0848422693       -0.9365636565
 C         -0.3111972677       -0.2312871907       -0.7068324735
 C         -0.8386715336       -1.5168011016       -0.5916949208
 N         -2.1631351789       -1.7512741828       -0.3787069386
 C         -3.2208195932       -0.9028470422       -0.2050597356
 N         -3.0514296754        0.4197072503       -0.1399309226
 C         -4.1629790291        1.1126396328        0.0421063341
 O         -4.0962611785        2.4319059275        0.1347950782
 C         -2.8065963339        3.0078448598        0.0297241725
 N         -5.3875940545        0.5976564268        0.1454870220
 C         -5.4410737435       -0.7309814629        0.0653486049
 O         -6.6157998984       -1.3320366296        0.1543646941
 C         -7.7442528159       -0.4882716091        0.3215252045
 N         -4.3996803318       -1.5302409284       -0.0997176880
 C          0.0026213837       -2.6756119239       -0.7038579246
 C          1.3656382618       -2.5428346393       -0.9321165652
 C          1.8964556613       -1.2666716570       -1.0477794977
 H          0.0498525862        2.5832718842        2.5168277570
 H          0.0185536489        1.0130488274        1.7044881031
 H          0.0604449525        1.0968436789        3.4673553307
 H          2.3427417007        2.1147329284        3.3504105739
 H          2.2773531953        2.0328546556        1.5877855823
 H          2.0545611873       -0.4342081843        1.7185103455
 H          2.1932605584       -0.3596837569        3.4747592764
 H          4.4323218536        0.6830485616        3.2691607059
 H          4.3044077875        0.6271184098        1.5164010913
 H          4.2151154284       -1.8300244118        3.3228459065
 H          5.7025645551       -1.2178651299        2.6036872927
 H          4.5933124988       -3.1530680383        1.3811916353
 H          3.2754581271       -2.0614753418        0.9876861698
 H          6.0597832368       -2.1576373396       -0.1279364278
 H          5.3958121707       -0.5496281349        0.1460986171
 H          4.0211995647       -2.7202354623       -1.4941875591
 H          4.9659614487       -1.3700555584       -2.1554403079
 H          5.2841507542        0.9911442388       -1.6999485088
 H          4.8862608690        3.4334336626       -1.6397744674
 H          2.6394117599        4.3316999022       -1.2488171939
 H          0.7063833310        2.8253837987       -0.8962343831
 H         -0.9615704225        0.6195728657       -0.6263368784
 H         -2.4604245122       -2.7197749739       -0.3599966707
 H         -2.1392917403        2.6041256821        0.7947865871
 H         -2.9480235300        4.0768061398        0.1738758533
 H         -2.3769988143        2.8126755721       -0.9559647296
 H         -8.6034252162       -1.1536018364        0.3681647784
 H         -7.8358364226        0.2011899140       -0.5194888385
 H         -7.6559021766        0.0937300675        1.2406090964
 H         -0.4409044580       -3.6530206438       -0.6103224563
 H          1.9816396479       -3.4254406760       -1.0131037971
