64
 energy: -101.048068644636 gnorm: 0.000023685830 xtb: 6.7.1 (edcfbbe)
C           -5.98376778452100       -1.59873554837903        0.00009267081915
C           -5.05939556698961       -0.36760475273882        0.00000853561910
C           -5.89434408132651        0.92589182353641       -0.00008316453691
C           -4.21104547941417       -0.39757299884358        1.25752726933586
C           -4.82770160873031       -0.37967132031138        2.50083239196868
C           -4.10519181721501       -0.40543571698255        3.67953031647082
C           -2.72403030168005       -0.45045676449513        3.62614461628292
C           -2.08479874288919       -0.46858311931496        2.40436102463541
C           -2.81402529220796       -0.44246662386358        1.21237295563867
N           -2.14340216422299       -0.46001465958265        0.00002056177518
C           -0.72301916205925       -0.50725616692695        0.00002347630724
C           -0.06649794744520       -1.73845673711742        0.00002150607855
C            1.30717877377562       -1.76680354869652        0.00002985943748
C            2.04890309109202       -0.58173674782986        0.00003096060262
C            1.39691719743198        0.66729686894244        0.00001411460708
C           -0.00106855736395        0.67160201325972        0.00002011680857
C            2.18031386114218        1.89577486703360       -0.00001547150689
C            1.58589320723831        3.15943021533313       -0.00007045418093
C            2.35695999422878        4.31368454217399       -0.00011035167108
C            1.71994226251560        5.57645341259710       -0.00021396137946
N            1.20467864070650        6.60045379613413       -0.00026912470920
C            3.75564911056477        4.23915438875920       -0.00009068616003
C            4.35423630599628        3.00439670011368       -0.00004758643439
C            3.58900536471123        1.83293100080987       -0.00001426499275
C            4.26123467321481        0.55188782739126        0.00001053994449
N            5.58041578018036        0.52386019689538       -0.00001641542144
C            6.18476682652228       -0.67166344263075        0.00000401778256
C            7.59431670165885       -0.74922511557741       -0.00004411831139
C            8.20542926495305       -1.96976034734360       -0.00001225267178
C            7.44829435276632       -3.15800368759744        0.00007643304581
C            6.08377381774518       -3.12038975740730        0.00012095894236
C            5.41708088827564       -1.87610200947649        0.00007519954999
N            4.07803773767796       -1.83442201090836        0.00008703864438
C            3.49377554936027       -0.65125548425969        0.00004485186236
C           -2.81402094194699       -0.44263117706458       -1.21233676767279
C           -2.08478886094719       -0.46888765815580       -2.40431838220228
C           -2.72401527971724       -0.45093285333065       -3.62610707894368
C           -4.10517725663076       -0.40593928250735       -3.67950456324486
C           -4.82769224370226       -0.38002276881438       -2.50081302746982
C           -4.21104113254163       -0.39775136502012       -1.25750284222814
H           -6.62051904744452       -1.60616311443985        0.88035067537693
H           -5.38727075177352       -2.50925053475503        0.00014197221989
H           -6.62053935005319       -1.60627044555631       -0.88015020118680
H           -6.52882155727403        0.97840407704534        0.88032111706942
H           -6.52879559714987        0.97829576347457       -0.88051240614152
H           -5.23522808115586        1.79211379793656       -0.00012696438044
H           -5.90512883735814       -0.34416486977578        2.55825187605874
H           -4.61746314159620       -0.39037430686844        4.62936301881726
H           -2.14038227696703       -0.47149399724942        4.53442613355364
H           -1.00632142067020       -0.50446119602028        2.36912968290045
H           -0.64559956207781       -2.64933277915434        0.00001642247004
H            1.84882733560089       -2.69933382388796        0.00003915359075
H           -0.55675445145183        1.59574468577741        0.00001578439909
H            0.51297055629485        3.26824571894815       -0.00009570815533
H            4.34124047430447        5.14602850056956       -0.00011189785442
H            5.42794656275729        2.90279219258673       -0.00001347987785
H            8.15561431347929        0.17218587269513       -0.00010600422613
H            9.28339844882280       -2.03609199469640       -0.00005610510810
H            7.96412751997978       -4.10689660452040        0.00010158160964
H            5.48615543770888       -4.01863916871818        0.00018447602629
H           -1.00631086558263       -0.50473539366948       -2.36907839548877
H           -2.14036251445944       -0.47207646455673       -4.53438305203771
H           -4.61744462307270       -0.39101914308657       -4.62934157499510
H           -5.90511975104217       -0.34453975986564       -2.55824200705976
