64
 energy: -101.007933489773 gnorm: 0.000115517581 xtb: 6.7.1 (edcfbbe)
C           -6.52283243078679       -1.69583718354711       -0.26413672363810
C           -5.58671079698990       -0.49240865815352       -0.04728924546874
C           -6.41013094097820        0.78996901223533        0.17434977230188
C           -4.74601793461811       -0.74682142340556        1.18806719010104
C           -5.36755292947639       -0.93921370569393        2.41407386066889
C           -4.64846977323438       -1.16624486476726        3.57307126568846
C           -3.26548629164472       -1.19936579831809        3.51953888440425
C           -2.62120262469886       -1.01120258862053        2.31629490608339
C           -3.34699839528610       -0.78901954286704        1.14048571328384
N           -2.67228850125531       -0.60652502113946       -0.05225893178309
C           -1.24937303175354       -0.65977774897099       -0.05327980304214
C           -0.60097899654957       -1.89787682019791       -0.14893183174144
C            0.76732130102526       -1.93772944918492       -0.14903309597436
C            1.52590382077328       -0.75873778553950       -0.05739437209024
C            0.87823964346278        0.49559007754761        0.03798366961969
C           -0.52332975343687        0.50704939305375        0.03902576942974
C            1.67045111653861        1.69855973675959        0.13063014225870
C            1.10297650504146        2.97227203813364        0.22297577125280
C            1.89248367140217        4.10746063780795        0.31118028811845
C            1.28275977901554        5.37638668192411        0.40282166302243
N            0.78544324459864        6.40804896508809        0.47686703844249
C            3.29664061773344        4.00193552452520        0.30975672051983
C            3.87150024929307        2.76618062460714        0.21926438719548
C            3.08572064170182        1.60126364231885        0.12828242617183
C            3.73493500712094        0.33588466924513        0.03344205029723
N            5.05715928651444        0.23757748317506        0.03055006181164
C            5.68535376692679       -0.93460062329473       -0.05763404466310
C            7.07373123010710       -1.04814341301470       -0.06198605625698
C            7.68368451568730       -2.28501902353495       -0.15513803649824
C            6.91971107996930       -3.44002258324057       -0.24652489415115
C            5.53894870810536       -3.36598281965290       -0.24561903818884
C            4.88995987858344       -2.13820195135288       -0.15338713650819
N            3.55946630489776       -2.02300195877194       -0.15036882351089
C            2.95290510331056       -0.85247723892150       -0.06146591276906
C           -3.33498897179591       -0.38094250764258       -1.24453192493533
C           -2.59879033847247       -0.22510322148140       -2.42452110350998
C           -3.23096724932135        0.00612609512013       -3.62666545662140
C           -4.61234883431904        0.08411566130716       -3.67482810070051
C           -5.34240280263499       -0.07814292615150       -2.51185784284253
C           -4.73319559382794       -0.31337247735689       -1.28710207864178
H           -7.16417553661506       -1.84856384505071        0.59919533919715
H           -5.93548604149950       -2.59883220088294       -0.42001372173246
H           -7.15491854772165       -1.54350551545109       -1.13432819858714
H           -7.03915593539595        0.99999499179284       -0.68605736920231
H           -5.74367643705588        1.63668928661832        0.32742173541490
H           -7.04874390702237        0.69420323535657        1.04790264182105
H           -6.44488101154994       -0.91103686568654        2.47342333055898
H           -5.16403876176523       -1.31253824039384        4.50968111352492
H           -2.68683593695951       -1.37017619097933        4.41467298058025
H           -1.54304402605440       -1.03362283053378        2.27945701356694
H           -1.18854541835659       -2.80042041643548       -0.21999800866645
H            1.29854658069504       -2.87420996631144       -0.22113110307044
H           -1.06823783479912        1.43504437010746        0.11045073375655
H            0.03170353142900        3.09965822410724        0.22694039837024
H            3.89790691115551        4.89580285162252        0.37956882095028
H            4.94444025578348        2.65036030328315        0.21488604295514
H            7.65697142513742       -0.14328830128963        0.00953868374493
H            8.76109752485002       -2.34888064755677       -0.15638629343475
H            7.40212799983392       -4.40272277867048       -0.31884437870844
H            4.93340919996866       -4.25625965357148       -0.31591691246349
H           -1.52215233779278       -0.28896599206295       -2.39190863334841
H           -2.64419380453861        0.12469039067345       -4.52493940800500
H           -5.11836821182424        0.26704040768904       -4.61019239115692
H           -6.41869196519241       -0.01866724464152       -2.56674346619045
