64
 energy: -101.048301670824 gnorm: 0.000052558836 xtb: 6.7.1 (edcfbbe)
C           -6.49866237135251       -1.51020443094581        0.80733931101621
C           -5.58564735787532       -0.48283965130651        0.11346142714027
C           -6.43141499877457        0.59946288577911       -0.58210311420442
C           -4.71657767140320        0.17672618487377        1.16671253596524
C           -5.31902399117686        0.87229995136361        2.20643736252627
C           -4.58559101940366        1.46494091658400        3.21688652248225
C           -3.20789093997803        1.34636831726040        3.20823417272766
C           -2.58376426407571        0.66206468624176        2.18673583051138
C           -3.32077564962996        0.09050674917986        1.14514342879368
N           -2.66494715515945       -0.58114087903750        0.12121344565684
C           -1.25046368267218       -0.64980058324699        0.13431226838050
C           -0.61179640020024       -1.86160831932792        0.40773698557045
C            0.76035469792786       -1.91307941288698        0.41759378169332
C            1.52421216631549       -0.76921867049042        0.16523221689810
C            0.89275087790899        0.46126360469659       -0.10495942551801
C           -0.50410941338173        0.48748360192910       -0.12063583883961
C            1.69719479394587        1.64945557282255       -0.35837852718789
C            1.12499879134975        2.89704494891278       -0.61580410138123
C            1.91603550654241        4.01275333923967       -0.85335361623175
C            1.30109824541826        5.25996265420023       -1.11105688024649
N            0.80366962955016        6.27133219210967       -1.32044634203887
C            3.31319448846318        3.91455091369071       -0.83989555438352
C            3.89005109040046        2.69590276372835       -0.58489569190343
C            3.10462336778296        1.56341331274416       -0.34312355314293
C            3.75490864141224        0.29953415663376       -0.07297982246960
N            5.07321348889210        0.24891903515010       -0.06797194396722
C            5.65696173167496       -0.92990356608611        0.18699426811463
C            7.06478319434812       -1.03077085850554        0.20238493895876
C            7.65501076262850       -2.23379547162119        0.46285960745903
C            6.87760101312208       -3.38075855077622        0.71758529884209
C            5.51390490442189       -3.31965753275074        0.71038493803949
C            4.86862253854254       -2.09258266014995        0.44474253886619
N            3.53048370874344       -2.02879535428819        0.43551639036804
C            2.96644970634599       -0.86229698308553        0.18343302889206
C           -3.35962715005780       -1.20487040612564       -0.90690928863169
C           -2.65523360388814       -1.82066095530684       -1.94580285772945
C           -3.31727964109029       -2.45846584912571       -2.97346986200569
C           -4.69983026421129       -2.48473235732162       -2.99068103716859
C           -5.39874458799966       -1.84726136284058       -1.98297001249299
C           -4.75765052486551       -1.19611215950636       -0.93765729383165
H           -7.12469749329055       -1.03127625939945        1.55500775927139
H           -5.89380851188776       -2.26858834369293        1.30117809136775
H           -7.14574705324566       -2.00313852986987        0.08715266506928
H           -7.08325516263222        0.16085889896619       -1.33241477167935
H           -5.77953582536807        1.31976911795127       -1.07298341179617
H           -7.04961053106807        1.13065256538836        0.13618290837626
H           -6.39490456905731        0.95486277360735        2.23515292600523
H           -5.08616441279413        2.00229201999802        4.00764995613591
H           -2.61451547213279        1.78235670196605        3.99802668008360
H           -1.50939457565147        0.56160312844838        2.20134308142062
H           -1.20505854797218       -2.74145900796238        0.60596214701349
H            1.28475797041026       -2.83210415698296        0.62575959559142
H           -1.04138418961847        1.39902839895152       -0.32923127003638
H            0.05412311051584        3.02365877530945       -0.63416147545801
H            3.91451062337487        4.79133464154799       -1.02709160682758
H            4.96182368034067        2.57747657633288       -0.56292902272069
H            7.64194200207311       -0.14079541269065        0.00509161449966
H            8.73168871931177       -2.31764703486893        0.47616691807118
H            7.37692446800797       -4.31679619746391        0.92020622789937
H            4.90084667650854       -4.18633926170696        0.90290331860643
H           -1.57644436925671       -1.79317471712716       -1.95147098325988
H           -2.74962623963910       -2.93043103492307       -3.76147473988130
H           -5.23024837414384       -2.98513471328356       -3.78628859368517
H           -6.47756984276792       -1.85830188700792       -2.01826992613724
