64
 energy: -101.007897876385 gnorm: 0.000087057152 xtb: 6.7.1 (edcfbbe)
C           -6.51925833658283       -1.54064779418513        0.73941660329575
C           -5.59090688582424       -0.47781670598785        0.12278041655338
C           -6.42230589441621        0.64765102785537       -0.52046884387100
C           -4.73761635080162        0.11562438183477        1.22586881675940
C           -5.34964458350084        0.74960374265235        2.29843889536597
C           -4.62305553503094        1.28949226599768        3.34332109635215
C           -3.24254054841833        1.18756157393589        3.33371603589459
C           -2.60793407314996        0.56535804965038        2.28088564092585
C           -3.33944024862912        0.03670626646742        1.21115109807156
N           -2.67433694966473       -0.57132213200302        0.16086302651056
C           -1.25316240274959       -0.62531088699966        0.17972807358464
C           -0.60859831895596       -1.81999646146398        0.52760599733291
C            0.75925351953112       -1.86538753629597        0.53470215109521
C            1.52299537422773       -0.73209660460254        0.20854542862600
C            0.88031258863946        0.48135393082053       -0.13235434749635
C           -0.52103295124196        0.49616351324351       -0.14402377454662
C            1.67780563987956        1.64080675989393       -0.45388486319041
C            1.11609213078010        2.87855970184095       -0.77841535722097
C            1.91071844591748        3.97260474224327       -1.08097178712938
C            1.30748342226785        5.20692996915735       -1.40161144988577
N            0.81625086766443        6.21094618888711       -1.66202993624601
C            3.31429618544393        3.86020822338278       -1.06912066814692
C            3.88358749116086        2.65976018560328       -0.75211222874685
C            3.09261513634038        1.53755841755114       -0.43928638967846
C            3.73642240191032        0.30999273658070       -0.10765215801381
N            5.05805651829204        0.20465767589093       -0.09712304737896
C            5.68113468483385       -0.93273900959572        0.20976652328607
C            7.06880553923263       -1.05364109014958        0.22238231788874
C            7.67313943186041       -2.25407694858375        0.54549208549424
C            6.90410596159743       -3.36424520863194        0.86499430205124
C            5.52383238566424       -3.28124645691008        0.86444505627858
C            4.88045596769367       -2.08934180220689        0.54446813943325
N            3.55081114920136       -1.96644446379122        0.53418524841727
C            2.94926045995154       -0.83174643768594        0.22369381527170
C           -3.35003929822510       -1.14231165259488       -0.90301014772094
C           -2.62561300158894       -1.72342323983127       -1.95019477408688
C           -3.27075059094365       -2.30984293854278       -3.01709675299705
C           -4.65418697269028       -2.32154810549376       -3.06420002282268
C           -5.37219585742480       -1.72961699393727       -2.04171273806155
C           -4.74942669271632       -1.13137258059090       -0.95497528734699
H           -7.15176889408667       -1.10453309580112        1.50732934476043
H           -5.92602194490243       -2.33290413398767        1.19229744177738
H           -7.16014904183344       -1.98232038804454       -0.01832777569986
H           -7.06045267453878        0.25655084809306       -1.30779563897530
H           -5.76100287765519        1.39532243736469       -0.95429167064447
H           -7.05260955753638        1.13460180970546        0.21819558571115
H           -6.42585900561982        0.82655174746458        2.32552037078233
H           -5.13093761309822        1.77851888438889        4.16018976081109
H           -2.65792202678125        1.59087178292426        4.14661046756919
H           -1.53236439848190        0.48104792773599        2.28412032643210
H           -1.19947254130275       -2.68709617369285        0.78061896319784
H            1.28637111796471       -2.77049219085131        0.79413312496539
H           -1.06133046428115        1.39233040675064       -0.40535136572713
H            0.04547081850418        3.01016765930857       -0.79749345550515
H            3.91954182471387        4.72154022350251       -1.30825429424430
H            4.95595098523941        2.54036709223545       -0.73153384636063
H            7.65604397233382       -0.18382407433026       -0.02785727031544
H            8.75012682722166       -2.32461929132691        0.54781850306989
H            7.38210430427370       -4.29880210393996        1.11568962588853
H            4.91422762613397       -4.13689734589371        1.11033995865146
H           -1.54717537042505       -1.70887893917717       -1.92453060620048
H           -2.69191203764651       -2.75487950588494       -3.81218865520224
H           -5.17057310257907       -2.78025423127122       -3.89327310897792
H           -6.44998185292778       -1.73541823148539       -2.09872233509114
