  116
  -179.014802226400       0.543368429847381      !
 C        -12.8662639504       -2.8254263363       -0.7568995884
 C        -12.9728363699       -1.5541440683       -0.2164861912
 C        -11.8454747937       -0.7736994666       -0.0508790788
 C        -10.5910210313       -1.2572044451       -0.4196754335
 C         -9.4259827435       -0.4049131749       -0.2375548093
 N         -9.5498191340        0.9503196019       -0.2363357839
 C         -8.3467773811        1.4496180518       -0.0953071679
 C         -8.0680633456        2.8731781640       -0.0148713305
 C         -8.9097133627        3.7499463033       -0.6998796844
 C         -8.6891273406        5.1119651533       -0.6500391469
 C         -7.6297301915        5.6193189640        0.0854836739
 C         -6.8043599603        4.7566309144        0.7870092755
 C         -7.0209437070        3.3919476051        0.7449394382
 N         -7.4111481637        0.4521801711       -0.0036186929
 C         -6.0143276258        0.5727359394        0.0947966930
 C         -5.3092773763        1.2898183585       -0.8660088962
 C         -3.9314914123        1.3483430634       -0.8027302516
 C         -3.2389084976        0.6874293878        0.2080834320
 C         -1.7621526281        0.6969025697        0.2319282186
 C         -1.0705551292        1.8807375334        0.5216990066
 C         -1.7526141066        3.0844877432        0.8409506952
 C         -1.0701695485        4.2226843269        1.1410325507
 C          0.3388855482        4.2235262761        1.1570965532
 C          1.0304391270        3.0879659582        0.8672330980
 C          0.3589145828        1.8834926424        0.5292298802
 C          1.0595732639        0.7046305935        0.2358666338
 C          2.5355605106        0.7044249552        0.2176113854
 C          3.2536822451       -0.0332463478        1.1548663073
 C          4.6318407303       -0.0858738377        1.1058035309
 C          5.3252378737        0.5984488706        0.1094180801
 C          6.7731781553        0.5239276963       -0.0159485756
 N          7.5448940114        1.5474912770       -0.2719954316
 C          8.8134514058        1.0582736427       -0.3077226455
 C         10.0208947553        1.7817025085       -0.5129462302
 C         10.0122234980        3.1683406042       -0.6968546872
 C         11.1902113922        3.8527416967       -0.8611969843
 C         12.3960220987        3.1545801239       -0.8389938138
 C         12.4156960805        1.7906543388       -0.6646829766
 C         11.2324556512        1.0534831820       -0.5029830200
 C         11.2168986286       -0.3914324570       -0.3537118316
 C         12.3940112234       -1.1501988537       -0.4232514044
 C         12.3850858687       -2.5216307563       -0.3300944219
 C         11.1818072933       -3.2032901632       -0.1790818285
 C         10.0068387525       -2.4977666602       -0.0978757603
 C          9.9970894807       -1.0969542088       -0.1609141928
 C          8.8087640080       -0.3173605603       -0.0825869894
 N          7.4870373314       -0.6484012997        0.1160919918
 C          6.9030541641       -1.8980157556        0.3976370774
 C          5.9520446937       -2.4190068824       -0.4723855918
 C          5.3278017663       -3.6152273130       -0.1696034578
 C          5.6507432174       -4.2952135181        0.9926143556
 C          6.6022568012       -3.7775428551        1.8566851308
 C          7.2266240159       -2.5783060593        1.5676738835
 C          4.6116712453        1.3787734474       -0.7986560369
 C          3.2338002618        1.4271236375       -0.7468360378
 C          0.3661894044       -0.4811035619       -0.0522983388
 C          1.0442124844       -1.6845364043       -0.3827222174
 C          0.3601022721       -2.8255925274       -0.6680733077
 C         -1.0486387018       -2.8317973660       -0.6577910745
 C         -1.7375813427       -1.6952700244       -0.3669891199
 C         -1.0633985424       -0.4861827046       -0.0492755287
 C         -3.9560567864       -0.0074074413        1.1775174888
 C         -5.3345013645       -0.0649445348        1.1266255589
 C         -8.0911432063       -0.7438360607       -0.0857014736
 C         -7.4164284915       -2.0325491764       -0.0002233583
 C         -6.2842267496       -2.3033874371       -0.7673455182
 C         -5.6365033068       -3.5189313411       -0.6512811979
 C         -6.1096732009       -4.4807324841        0.2251241831
 C         -7.2426056611       -4.2248557258        0.9809573932
 C         -7.8916359813       -3.0102271343        0.8731766001
 C        -10.4939107919       -2.5295364664       -0.9796955844
 C        -11.6255172675       -3.3061765540       -1.1419079723
 H        -13.7474354454       -3.4372562141       -0.8845863292
 H        -13.9400304742       -1.1718406623        0.0769859738
 H        -11.9124071344        0.2203153466        0.3634350469
 H         -9.7306304383        3.3373997130       -1.2653399793
 H         -9.3431620903        5.7825651303       -1.1877968369
 H         -7.4535785260        6.6843058974        0.1200401375
 H         -5.9893143147        5.1490580239        1.3778291583
 H         -6.3861952196        2.7341534183        1.3201872811
 H         -5.8462357516        1.7873767098       -1.6601795960
 H         -3.3799221642        1.8923616978       -1.5553182922
 H         -2.8326464840        3.0790568629        0.8492607992
 H         -1.6025307779        5.1313464755        1.3808497454
 H          0.8645165721        5.1318572159        1.4119821265
 H          2.1095834513        3.0854808575        0.9000914098
 H          2.7213394817       -0.5677443278        1.9285096827
 H          5.1685981223       -0.6517350430        1.8525341979
 H          9.0574020018        3.6706494925       -0.6968847788
 H         11.1888559976        4.9235651336       -1.0015797719
 H         13.3267112093        3.6900750927       -0.9595920807
 H         13.3730684658        1.2943535751       -0.6514490364
 H         13.3421156401       -0.6569100672       -0.5642013119
 H         13.3127042261       -3.0717316414       -0.3889218781
 H         11.1701874784       -4.2821806819       -0.1310037545
 H          9.0745536171       -3.0316061099       -0.0014496737
 H          5.7067125079       -1.8808555012       -1.3759853367
 H          4.5879591992       -4.0170667917       -0.8453756980
 H          5.1611668321       -5.2282959466        1.2264994848
 H          6.8549292246       -4.3055774063        2.7638563514
 H          7.9635123325       -2.1617361432        2.2390690215
 H          5.1563031103        1.9300866546       -1.5494274783
 H          2.6842165210        2.0126842453       -1.4697453428
 H          2.1237551322       -1.6792507232       -0.4094612781
 H          0.8911508186       -3.7332023030       -0.9152117870
 H         -1.5755670790       -3.7448170124       -0.8933633457
 H         -2.8174297794       -1.6985518208       -0.3787330158
 H         -3.4249130367       -0.5075205919        1.9738947991
 H         -5.8888926599       -0.6083802457        1.8772174863
 H         -5.9194503674       -1.5654955152       -1.4677204676
 H         -4.7598709818       -3.7161730622       -1.2514180716
 H         -5.6009536996       -5.4290444161        0.3154074381
 H         -7.6187475268       -4.9741929223        1.6618982879
 H         -8.7720029612       -2.8056232701        1.4648789686
 H         -9.5333257563       -2.9046727703       -1.3004577575
 H        -11.5396469600       -4.2913380092       -1.5777636343
  116
  -179.014637879800       0.456631570152620      !
 C        -12.7974052392       -2.7602397078       -1.2992134693
 C        -12.9445386159       -1.5760046509       -0.5952172865
 C        -11.8379571640       -0.8083331784       -0.2894608238
 C        -10.5637618792       -1.2173434338       -0.6807656880
 C         -9.4225962498       -0.3767789032       -0.3526529827
 N         -9.5804348612        0.9595284103       -0.1512958161
 C         -8.3916030273        1.4618858407        0.0770298395
 C         -8.1553910549        2.8636259045        0.3737728096
 C         -9.0507894358        3.8036348121       -0.1383667709
 C         -8.8789255773        5.1479721604        0.1238681533
 C         -7.8146542248        5.5750802355        0.9023772845
 C         -6.9342867759        4.6464513114        1.4315471935
 C         -7.1018604865        3.2980456202        1.1764948203
 N         -7.4322753321        0.4843799620        0.0311497414
 C         -6.0373179441        0.6110683715        0.1552962108
 C         -5.3311621740        1.4284301756       -0.7206708481
 C         -3.9529542075        1.4745258909       -0.6541878915
 C         -3.2601545452        0.7081104367        0.2798553274
 C         -1.7845792317        0.6964543808        0.2939463987
 C         -1.0707003679        1.8643786289        0.5991366772
 C         -1.7253938200        3.0711474215        0.9614276236
 C         -1.0187999545        4.1968439206        1.2537584570
 C          0.3898557468        4.1845162121        1.2153140580
 C          1.0570426226        3.0429290913        0.8946986506
 C          0.3585934963        1.8485841592        0.5763192969
 C          1.0374956653        0.6621566075        0.2691361240
 C          2.5149537282        0.6437521663        0.2253922909
 C          3.2492959093        0.0151580340        1.2257469481
 C          4.6273643659       -0.0467570894        1.1585648180
 C          5.3030696735        0.5089770054        0.0736638611
 C          6.7459587420        0.4341165579       -0.0884074025
 N          7.4620551858        1.3949656998       -0.6155882936
 C          8.7457177693        0.9503803153       -0.6148801320
 C          9.9089520758        1.6415167399       -1.0546340366
 C          9.8318724061        2.9470400611       -1.5507710577
 C         10.9692360288        3.6080959387       -1.9416437706
 C         12.2026967317        2.9683270802       -1.8363935542
 C         12.2892066469        1.6826987003       -1.3557453148
 C         11.1487698495        0.9700324972       -0.9544081037
 C         11.2028092358       -0.4005028037       -0.4754342187
 C         12.4058633751       -1.1197729997       -0.4415577689
 C         12.4613725843       -2.4310591746       -0.0326412900
 C         11.2987926654       -3.0930062127        0.3487206160
 C         10.1005473038       -2.4228939817        0.3373880924
 C         10.0264210877       -1.0769500345       -0.0491799515
 C          8.8113993037       -0.3361778948       -0.0821207343
 N          7.5171142706       -0.6528043157        0.2649209574
 C          7.0233624252       -1.8282441882        0.8633744502
 C          6.1078143477       -2.6177367629        0.1776329808
 C          5.5847378469       -3.7443959586        0.7861698051
 C          5.9726685083       -4.0870797603        2.0705762115
 C          6.8885968187       -3.3011087382        2.7516112272
 C          7.4131127546       -2.1695933537        2.1552660034
 C          4.5697943769        1.1796663950       -0.9061654100
 C          3.1946238360        1.2456807528       -0.8306965453
 C          0.3246484094       -0.5105849206       -0.0173941405
 C          0.9880932289       -1.7232566543       -0.3428738742
 C          0.2894955611       -2.8497841114       -0.6490275774
 C         -1.1190313347       -2.8271616440       -0.6680711701
 C         -1.7931596169       -1.6836269586       -0.3689266834
 C         -1.1048690344       -0.4920424888       -0.0166532644
 C         -3.9807485434       -0.0779739217        1.1753652560
 C         -5.3587940870       -0.1306772789        1.1158550179
 C         -8.0807481580       -0.7022181501       -0.2354172337
 C         -7.3704371601       -1.9717735973       -0.3257183140
 C         -6.2291897276       -2.1024897439       -1.1156995489
 C         -5.5460337374       -3.3033149570       -1.1633010117
 C         -5.9920208590       -4.3889685824       -0.4288516236
 C         -7.1337761356       -4.2717394009        0.3477354974
 C         -7.8185121128       -3.0731734421        0.4026500796
 C        -10.4255448480       -2.4006490674       -1.4037992665
 C        -11.5365332071       -3.1654161708       -1.7053060577
 H        -13.6624260111       -3.3620132581       -1.5374107887
 H        -13.9273244649       -1.2516122986       -0.2843773708
 H        -11.9364814566        0.1189919223        0.2533518539
 H         -9.8752086419        3.4522992774       -0.7387835427
 H         -9.5755452777        5.8678809638       -0.2799462190
 H         -7.6772715113        6.6271202441        1.1042295933
 H         -6.1142853874        4.9728476543        2.0548612840
 H         -6.4237068490        2.5848087804        1.6211983857
 H         -5.8674607890        2.0084368267       -1.4573641179
 H         -3.4011681838        2.0878720468       -1.3512331149
 H         -2.8042433815        3.0800761410        1.0100388059
 H         -1.5322813231        5.1071896056        1.5262591384
 H          0.9339272764        5.0862177039        1.4544359657
 H          2.1367241088        3.0253894969        0.8846022068
 H          2.7313634863       -0.4266342625        2.0650123562
 H          5.1736370387       -0.5170823095        1.9619902423
 H          8.8582962789        3.4087454908       -1.6061020953
 H         10.9149354235        4.6167929379       -2.3238671142
 H         13.1019531891        3.4871336213       -2.1359458566
 H         13.2659119044        1.2301905330       -1.2895282247
 H         13.3227194775       -0.6457315655       -0.7526156691
 H         13.4073164816       -2.9522427251       -0.0208089407
 H         11.3363869975       -4.1302231895        0.6476173260
 H          9.1994547622       -2.9463441719        0.6154260634
 H          5.8110375803       -2.3405430669       -0.8230882635
 H          4.8723143756       -4.3566360613        0.2541489296
 H          5.5610284076       -4.9661749029        2.5426829612
 H          7.1916495603       -3.5659364122        3.7534080749
 H          8.1234747308       -1.5456270489        2.6780985855
 H          5.1022150985        1.6348555035       -1.7265867252
 H          2.6315948629        1.7527790563       -1.6009144471
 H          2.0680388991       -1.7333584310       -0.3473976087
 H          0.8076329892       -3.7657320753       -0.8926048285
 H         -1.6593363272       -3.7250570769       -0.9302083314
 H         -2.8723299781       -1.6705781645       -0.4026129954
 H         -3.4517868625       -0.6552784319        1.9192689884
 H         -5.9146486566       -0.7514431384        1.8028091537
 H         -5.8843103809       -1.2656921641       -1.7062697169
 H         -4.6633688971       -3.3909884014       -1.7804428315
 H         -5.4550963936       -5.3252799490       -0.4648819991
 H         -7.4889785263       -5.1177477453        0.9176218205
 H         -8.7062086908       -2.9772336505        1.0107534368
 H         -9.4489819052       -2.7144358885       -1.7417303869
 H        -11.4184856034       -4.0810873881       -2.2670684992
