  141
       -204.88556200
 C        -13.1756924890       -4.1017003442        3.3448549755
 C        -13.3729689348       -2.5842443737        3.4680290902
 C        -13.1453804549       -2.1468328419        4.9220023206
 C        -14.8236017143       -2.2642158191        3.0969245580
 C        -12.3699007676       -1.8730384701        2.5713397928
 C        -11.0017158026       -2.0912392679        2.7832291638
 C        -10.0199385899       -1.4933275056        2.0202733990
 C        -10.4164913483       -0.6452646008        0.9977746511
 C        -11.7862633057       -0.3876308359        0.7798824425
 C        -12.7532676123       -1.0056162999        1.5622347169
 C        -11.8552021355        0.5603486863       -0.2974506672
 C        -12.9146791610        1.1670135068       -0.9594565418
 C        -12.6628853157        2.0445113911       -2.0007473028
 C        -13.7729402275        2.7497894099       -2.7665502570
 C        -13.6905521963        2.3613096431       -4.2496146727
 C        -15.1678281471        2.3776227595       -2.2563262946
 C        -13.6010083247        4.2680059243       -2.6168113481
 C        -11.3314745400        2.2845734948       -2.3670401616
 C        -10.2597668391        1.6961995151       -1.7275229588
 C        -10.5233627749        0.8375216675       -0.6715062792
 N         -9.6608887521        0.1007422854        0.1152883644
 C         -8.2642385674        0.1120246196        0.0402771125
 C         -7.5534991735       -1.0836388467       -0.0271381257
 C         -6.1752293454       -1.0694977344       -0.0866297732
 C         -5.4690523171        0.1325829312       -0.0905827354
 C         -4.0022476000        0.1427756896       -0.1472586422
 C         -3.2553105271       -0.8070669932        0.5483233620
 C         -1.8771587849       -0.8001142781        0.4975031645
 C         -1.1993078174        0.1600334335       -0.2494137807
 C          0.2716498962        0.1853048828       -0.2876490265
 C          0.9349306806        1.3689162049        0.0091978545
 C          2.3206563990        1.4489148394        0.0514167621
 C          2.9602149300        2.7434702179        0.3408909483
 C          3.9799108465        3.2333775040       -0.4710656790
 C          4.5718691096        4.4508728956       -0.1941923566
 C          4.1542301438        5.1977735916        0.8949284848
 C          3.1333393630        4.7244062542        1.7014231649
 C          2.5371525074        3.5077911879        1.4246591267
 C          3.0723625745        0.2955138520       -0.2105268243
 C          4.5408284053        0.2908793950       -0.1158475707
 C          5.3153293972       -0.2305214009       -1.1479091917
 C          6.6937011825       -0.2455933953       -1.0656061259
 C          7.3347723010        0.2419866320        0.0717356384
 C          8.7774909442        0.2677093072        0.2374227997
 N          9.3886910927        1.1912226984        0.9388276815
 C         10.7126258371        0.9016306626        0.8720672940
 C         11.7941359526        1.6272037782        1.4449612866
 C         11.5729794018        2.7979157858        2.1778457319
 C         12.6310288263        3.4989314636        2.6998336573
 C         13.9285177056        3.0364803835        2.4890144945
 C         14.1567713369        1.8837857527        1.7743965776
 C         13.1013862299        1.1334709603        1.2331587138
 C         13.3063831521       -0.1060631826        0.5035728520
 C         14.5849411831       -0.6575307895        0.3391670003
 C         14.7876534752       -1.8511455635       -0.3119443042
 C         13.7044681474       -2.5617637360       -0.8185815703
 C         12.4360269031       -2.0532863348       -0.6858194872
 C         12.2099866410       -0.8240041566       -0.0498577586
 C         10.9175801233       -0.2502377755        0.1135248381
 N          9.6636826160       -0.6426466763       -0.2981144780
 C          9.3142772866       -1.7478903916       -1.0990264385
 C          8.5558713414       -2.7793579040       -0.5582055069
 C          8.1860670243       -3.8474265052       -1.3557795227
 C          8.5702683750       -3.8907943750       -2.6856972645
 C          9.3273045827       -2.8619979930       -3.2233615574
 C          9.6988942720       -1.7877644579       -2.4362745201
 C          6.5578351642        0.7711608852        1.1053549610
 C          5.1843426767        0.7952590863        1.0133008775
 C          2.4094811708       -0.8822895899       -0.5309917543
 C          1.0236081953       -0.9607371989       -0.5770793637
 C          0.3832056401       -2.2326855028       -0.9527175362
 C          0.7678996728       -3.4204187167       -0.3369895438
 C          0.1709901848       -4.6180597807       -0.6855986460
 C         -0.8117332835       -4.6471886447       -1.6604681614
 C         -1.1912060529       -3.4723085924       -2.2884075253
 C         -0.5995211679       -2.2734266202       -1.9383225528
 C         -1.9416618241        1.1171253164       -0.9353939207
 C         -3.3210885382        1.1052680354       -0.8898579529
 C         -6.1905733335        1.3241837066       -0.0327441177
 C         -7.5684125992        1.3182421201        0.0367061272
 H        -12.1809942517       -4.4001259517        3.6633181640
 H        -13.3111328501       -4.4147380667        2.3116595327
 H        -13.9018527574       -4.6256844053        3.9629053133
 H        -13.8658422774       -2.6318890780        5.5774072414
 H        -12.1468300963       -2.4064507695        5.2621045295
 H        -13.2660362121       -1.0692513434        5.0125408350
 H        -15.0412347398       -2.5682954922        2.0757062787
 H        -15.4953610527       -2.8058421282        3.7599592834
 H        -15.0300165436       -1.2020820064        3.2054835177
 H        -10.6883295247       -2.7500465657        3.5786662858
 H         -8.9756727737       -1.6741051371        2.2272666712
 H        -13.7898799852       -0.7877857397        1.3674993055
 H        -13.9185374388        0.9334348721       -0.6471460458
 H        -13.7821782850        1.2828948816       -4.3606386561
 H        -12.7462271828        2.6692233457       -4.6892443266
 H        -14.4955529256        2.8358187476       -4.8068714413
 H        -15.2894378464        2.6566332753       -1.2124139462
 H        -15.3518678896        1.3114605442       -2.3652113839
 H        -15.9197080698        2.9092109465       -2.8360208908
 H        -14.3950930068        4.7900949629       -3.1466396734
 H        -12.6480603449        4.6004245614       -3.0187062620
 H        -13.6439041239        4.5482633605       -1.5663529374
 H        -11.1212760122        2.9547374161       -3.1865930748
 H         -9.2491041398        1.8936532051       -2.0525063370
 H         -8.0910659707       -2.0200031306       -0.0491489382
 H         -5.6372916236       -2.0032453678       -0.1597083400
 H         -3.7614959047       -1.5443885255        1.1540148188
 H         -1.3146800183       -1.5360133774        1.0531459470
 H          0.3525480985        2.2550018992        0.2191694739
 H          4.3011623097        2.6592211954       -1.3276021544
 H          5.3637983521        4.8181114281       -0.8301209428
 H          4.6220237124        6.1461815441        1.1133701964
 H          2.8018319567        5.3036093139        2.5510720269
 H          1.7504867249        3.1329905466        2.0644388697
 H          4.8306684699       -0.6032260655       -2.0393308735
 H          7.2647834811       -0.6171266623       -1.9023755434
 H         10.5533427488        3.1251609611        2.3090221963
 H         12.4655200511        4.4039577910        3.2652135650
 H         14.7654707540        3.5885807078        2.8918158030
 H         15.1781742333        1.5674288484        1.6348910694
 H         15.4448877666       -0.1447193289        0.7380826816
 H         15.7880847971       -2.2437338281       -0.4187798799
 H         13.8585562852       -3.5107476922       -1.3106085210
 H         11.5989451789       -2.6176245348       -1.0644277499
 H          8.2593579005       -2.7325247121        0.4790708107
 H          7.5975672167       -4.6488976895       -0.9355585455
 H          8.2799865688       -4.7261202238       -3.3046026785
 H          9.6262995924       -2.8928560621       -4.2603241867
 H         10.2871214393       -0.9782914661       -2.8437430325
 H          7.0604235655        1.1611449845        1.9761786947
 H          4.5969032883        1.1972440715        1.8252461584
 H          2.9917873551       -1.7672701540       -0.7466521172
 H          1.5253577393       -3.3972323796        0.4339235515
 H          0.4721809926       -5.5315412529       -0.1934854054
 H         -1.2784947819       -5.5825165717       -1.9318773770
 H         -1.9516028791       -3.4903611783       -3.0555204820
 H         -0.8912002762       -1.3610499730       -2.4375660246
 H         -1.4288215834        1.8625003464       -1.5269949084
 H         -3.8793638646        1.8380566432       -1.4542509457
 H         -5.6629667511        2.2663292525       -0.0098026798
 H         -8.1152130246        2.2466061089        0.1099462847
