95
 energy: -147.923292838317 gnorm: 0.000065717099 xtb: 6.7.1 (edcfbbe)
C            3.84359171226250        1.85596422714372        3.70035126864330
C            3.50532080036779        2.32988540462291        2.44366311953488
C            3.87431336281447        1.62535358821612        1.31123246873700
C            4.58630366518257        0.43916268071474        1.44072393628199
N            4.92838592805059       -0.29712453751907        0.28566727813847
C            4.01478964819546       -0.84709940489895       -0.58419453793553
C            2.57145286612199       -0.74424201981453       -0.41877775831522
C            1.95276811074751       -0.93244875353559        0.81547770715587
C            0.58047362761160       -0.83351483946368        0.92902057051063
C           -0.20725090665737       -0.53022252983159       -0.17852302682283
C           -1.66661653066743       -0.39192091486626       -0.04504331257965
C           -2.31663049202333        0.70730280470930       -0.59469384806326
C           -3.69390860436833        0.85630996728927       -0.47017540089915
C           -4.36615499428477        2.04317064166129       -1.02458635024046
C           -5.56992536214775        1.92796664855223       -1.71592886102060
C           -6.18945451581895        3.05235031011324       -2.23099987329968
C           -5.62717299689226        4.30381495753725       -2.05610948298263
C           -4.42567584013262        4.44153471875901       -1.36360155532168
C           -3.82166520414379        5.76583149658699       -1.16547734450249
C           -4.59297419110788        6.88633242193618       -0.85840999168441
C           -3.97073964498923        8.10888096300125       -0.67516881988093
C           -2.59102505504940        8.17335041949648       -0.80146871847537
N           -1.84379819428667        7.12209120180819       -1.09907525771611
C           -2.44321208960209        5.95937852372502       -1.27621218702997
C           -3.80384952689777        3.30424309489951       -0.85855965605439
C           -4.42324340529741       -0.12480220761394        0.19306373534362
C           -3.79067389352456       -1.23276852519656        0.74795137266539
C           -4.57270383373993       -2.26765577936194        1.44487731804087
C           -4.11972153722212       -2.82003908192714        2.64088514103519
C           -4.86318144863916       -3.79037712765740        3.28818374054233
C           -6.06257275881491       -4.22614965768161        2.75484485384959
C           -6.53016987741907       -3.69152603045559        1.55601380483918
C           -7.79867943794356       -4.15222273500114        0.97531526908615
C           -7.94049703494487       -4.37747991135503       -0.39358983740052
C           -9.15798205962456       -4.81374371822557       -0.88643965870974
C          -10.19828476742545       -5.01606351492678        0.00822160700400
N          -10.08326685388810       -4.80204469378683        1.30942518327815
C           -8.92091562507169       -4.38212866580297        1.77345644698674
C           -5.77788125425759       -2.71373034380059        0.91352997703158
C           -2.40940787227510       -1.35197456590732        0.63307573286005
C            0.41312210765420       -0.35775874620112       -1.41425483198042
C            1.78221010177820       -0.47678377761494       -1.53667963837405
N            4.59104137450005       -1.48206870959377       -1.57417701693128
C            5.93050174938638       -1.36117483102980       -1.36315390603178
C            6.98894451440755       -1.91626873441764       -2.13569652575773
C            6.73043367158299       -2.71532669095776       -3.25526566712245
C            7.76484807533938       -3.27022625718306       -3.96683575536422
C            9.07763709207482       -3.03210454728851       -3.56347052792870
C            9.34402573112726       -2.24385253485872       -2.46814344508472
C            8.31440057227772       -1.65364597633840       -1.71818474127669
C            8.56490197693477       -0.79457622975129       -0.57316467071282
C            9.86742503644068       -0.44815558494061       -0.18469364114395
C           10.11421762444652        0.39458131762140        0.87340492348628
C            9.05539683410871        0.94635384895017        1.58816522800327
C            7.76460760532903        0.62765679981902        1.24450252543945
C            7.49156068533185       -0.25026119635692        0.18520992752070
C            6.17315337446849       -0.60946554248105       -0.21493680343486
C            4.92046454802431       -0.04336967884887        2.70256990111444
C            4.55049305146115        0.67056640390746        3.82790058849950
H            3.55554844644757        2.40921036725403        4.58131695644453
H            2.95394638848712        3.25221318027875        2.34091697506792
H            3.61549934275451        1.98615667825157        0.32659757808522
H            2.54325675117652       -1.17526852930956        1.68635823177932
H            0.11309970221423       -0.97489287560049        1.89261153847139
H           -1.74192271836405        1.45489405404710       -1.12146787397284
H           -6.00993089796576        0.95308934884920       -1.86569354043889
H           -7.11749115083238        2.95279419360125       -2.77536798658171
H           -6.10898266047292        5.17549689252815       -2.47412611364192
H           -5.66378834305744        6.79314138404164       -0.74593320190310
H           -4.54145728742810        8.99212678836147       -0.43255632418216
H           -2.05393853970035        9.10242504441206       -0.66019061713076
H           -1.78865627913663        5.13717143666875       -1.53697466031205
H           -2.88922087580319        3.40640779497693       -0.29266934133641
H           -5.48962746933526       -0.00345249352510        0.31524767579048
H           -3.19261275208798       -2.47303558969234        3.07261754863393
H           -4.50502379307695       -4.21174924294070        4.21645396337600
H           -6.62977760140830       -4.99747491021504        3.25467850259198
H           -7.10014995464690       -4.22976009947882       -1.05708164109244
H           -9.29644855174123       -5.00055771941257       -1.94037084636470
H          -11.16817261785407       -5.36395584698683       -0.32321500074529
H           -8.88543013570720       -4.20398497313935        2.84104484352003
H           -6.13622959307295       -2.29254764464482       -0.01456963847962
H           -1.91094599317319       -2.22034029356306        1.03809924989731
H           -0.18779438607762       -0.14577705232000       -2.28667404082976
H            2.26299598012307       -0.35786051731600       -2.49601865237649
H            5.69951937600506       -2.88192636014493       -3.52893533366796
H            7.56756421399420       -3.88984287980554       -4.82941105983872
H            9.89543306433864       -3.47179961556111       -4.11635243101862
H           10.37515118932538       -2.09079895432255       -2.19191631273399
H           10.71082651020241       -0.83986430122526       -0.72990496956304
H           11.13191042392405        0.63784925731294        1.14184851424908
H            9.24583149850733        1.62618752766219        2.40555996175687
H            6.94637736435630        1.07099500657319        1.78911777224991
H            5.46993939304759       -0.96985500118556        2.78975298905499
H            4.81315331717973        0.29682310102636        4.80616430934856
