95
 energy: -147.834639146245 gnorm: 0.000152851932 xtb: 6.7.1 (edcfbbe)
C            4.13832116759425        4.11475179067715       -0.75109756195191
C            4.91486062530112        3.41858370972562       -1.66516904034679
C            5.17114368613173        2.07255105350636       -1.48056177058793
C            4.64804624742157        1.41550069071694       -0.36765003092778
N            4.87995304932281        0.04103155038096       -0.17924204373088
C            3.87050984994368       -0.95244962381753       -0.12424494258848
C            2.51209790004881       -0.80202751438720       -0.39465769054059
C            1.63254333406762       -1.87395915822614       -0.02643177921144
C            0.28818909582585       -1.77815399043603       -0.18361622141350
C           -0.32223165531866       -0.61885151762142       -0.73871820644022
C           -1.75049930487180       -0.47957694607694       -0.83591744619149
C           -2.34850600940154        0.79255203225220       -0.91472075548950
C           -3.72196995041276        0.95072863277456       -0.97830648134780
C           -4.30691061047314        2.29960556483021       -1.06195752235924
C           -5.38795025886060        2.55657081516698       -1.90298198452335
C           -5.92091287323851        3.83004001497622       -1.98785698911842
C           -5.38953880915481        4.86368058413042       -1.23811140601358
C           -4.30752781546817        4.62927223092276       -0.39172578378499
C           -3.72322628671336        5.72326937650962        0.39564665893950
C           -4.51434700923631        6.68546615402022        1.02221165072367
C           -3.90658711553477        7.69891563903460        1.74277542504067
C           -2.52189578233384        7.71685186808847        1.81866029423638
N           -1.75492483487503        6.81443016874332        1.22733834030174
C           -2.34017590351687        5.85260072654460        0.53819680595033
C           -3.77857302513477        3.34531091407516       -0.31175606433238
C           -4.54241037472709       -0.17844188762102       -0.96439820164507
C           -3.98271408865231       -1.45504804319299       -0.89431791243954
C           -4.85203644034866       -2.64432652917014       -0.87650394607679
C           -4.54362947500971       -3.76617018306263       -1.64303749351887
C           -5.36592675421510       -4.87794163729453       -1.61597872827807
C           -6.50124685826627       -4.89035903714697       -0.82616062132678
C           -6.82569062783988       -3.78021014254669       -0.04878145290514
C           -8.02381668555185       -3.78752903030511        0.80133855428198
C           -9.23053759171345       -4.33369498419072        0.36519583050326
C          -10.32872949082481       -4.31283288376043        1.20722672264274
C          -10.18680721261531       -3.74232123831903        2.46334300964473
N           -9.04783898044134       -3.22521918266989        2.89626001160077
C           -8.00283523313573       -3.25029745713628        2.09008770688760
C           -5.99473647517310       -2.66506235687288       -0.08424505858329
C           -2.60729228618739       -1.59668588598157       -0.83390144640282
C            0.55852536837961        0.39955568242216       -1.19460191344594
C            1.90646091579758        0.32123657570623       -1.03964435303700
N            4.41326826521531       -2.15120529250421        0.19115067942699
C            5.71815005990620       -1.96624683343144        0.29148097969162
C            6.71831711319485       -2.95356897304105        0.53745250075397
C            6.37497102546155       -4.30263728569980        0.65281506763841
C            7.35004995974478       -5.25737852460519        0.84462183240594
C            8.68069132844598       -4.86154017891933        0.91238824896838
C            9.02966909401627       -3.52956266513302        0.80727260891559
C            8.06503437724053       -2.52941062504489        0.62626620151607
C            8.39488358296047       -1.11581348475311        0.54671908384737
C            9.69856036875336       -0.65823399832370        0.74691829827882
C           10.02455797282721        0.68201980745817        0.70985863110299
C            9.03107837465919        1.63596702603607        0.48350888129561
C            7.73842742376334        1.23552559594045        0.27673101470672
C            7.37971197774579       -0.13284185087127        0.28572220951713
C            6.06583248755107       -0.59167738696319        0.09458660410606
C            3.86989710266224        2.11601683109373        0.55210873312699
C            3.61817921404019        3.46118715365175        0.35515884637290
H            3.93692409994106        5.16432496696196       -0.90191306689937
H            5.31790797514325        3.92324044350168       -2.53051710763988
H            5.77019608325574        1.52108139687366       -2.19089097632731
H            2.08196806407362       -2.74688457526638        0.41986509185727
H           -0.33561887892067       -2.58761855996626        0.16323468793118
H           -1.72487050023388        1.67238853990126       -0.91090346885387
H           -5.79647923346991        1.76013379627332       -2.50741847196950
H           -6.75374474417381        4.02066978211844       -2.64939613436121
H           -5.79788925373707        5.85990633340948       -1.32518058028499
H           -5.59160012765412        6.62691333052937        0.95832900219373
H           -4.49335631192608        8.45542090833703        2.24091156117985
H           -1.99710914698993        8.48315865119837        2.37449996480459
H           -1.66770001873619        5.15315261994887        0.05746912879919
H           -2.96485416293121        3.15056762796161        0.37171310657844
H           -5.61499823046232       -0.06516458035207       -1.00705711914018
H           -3.66721429890584       -3.75768979024069       -2.27431746624766
H           -5.11982292321138       -5.74308387727557       -2.21477016559342
H           -7.12730101132257       -5.77000403756013       -0.79412437583580
H           -9.30867910744931       -4.75148523311771       -0.62850758686645
H          -11.27615150851258       -4.72468454031631        0.89495743552353
H          -11.01461686229580       -3.69448501493285        3.15904488637428
H           -7.09184593057741       -2.83188265245325        2.49948300361300
H           -6.24164617780143       -1.79990117562232        0.51402012920406
H           -2.18984092685853       -2.59035824275703       -0.79273011014195
H            0.15033655961698        1.24668774729679       -1.72521318841904
H            2.52942396037205        1.09534164983402       -1.45681937241744
H            5.33090672086087       -4.56594634543551        0.57978780234435
H            7.08597991572001       -6.30038678901782        0.93335409214973
H            9.45466865599324       -5.60277708236718        1.04990652360049
H           10.07582546662539       -3.27466379833857        0.86072657972693
H           10.48784442041628       -1.36357601722155        0.95108482270582
H           11.04607899413648        0.99255202095909        0.86981492039659
H            9.27990688263896        2.68676840695929        0.47692573056264
H            6.97178980052792        1.97653780938947        0.12293977097160
H            3.46544641813600        1.59683469611877        1.40858307635275
H            3.01432875991509        4.00084574716747        1.06908534064133
