  34
  -62.2243485958000        1.00000000000000      !
 Br         5.0904835032       -1.0493443850       -0.0051794300
 C          3.9343755174        0.4709508780        0.0002458633
 C          4.4734875393        1.7471234216        0.0061134141
 C          3.5747933155        2.8060789816        0.0100613344
 C          2.2162063479        2.5472407172        0.0085340779
 C          1.7921030417        1.2165981955        0.0037423452
 C          0.3944258159        0.8602263781        0.0029115440
 N         -0.6219000877        1.6955152643        0.0027177454
 C         -1.7323801704        0.9172641956        0.0016186388
 C         -3.1023011268        1.3083840176       -0.0008221241
 C         -3.5289482522        2.6413018862       -0.0035623516
 C         -4.8787177548        2.9044579055       -0.0073413971
 C         -5.7644451514        1.8217904348       -0.0077722003
 N         -5.3866062021        0.5678888590       -0.0050932433
 C         -4.0814878343        0.2852477770       -0.0017034358
 C         -3.6942437179       -1.1141036188        0.0007473591
 N         -4.6638512730       -2.0294573163        0.0015203672
 C         -4.3450835445       -3.2995782229        0.0037796042
 C         -3.0289600033       -3.7719726073        0.0056424732
 C         -2.0071590221       -2.8519633741        0.0047410296
 C         -2.3232981201       -1.4866250908        0.0023300323
 C         -1.3709018486       -0.4364712829        0.0017747948
 N         -0.0109739291       -0.4452046881        0.0021539917
 N          2.6548428226        0.1961064885       -0.0003005422
 H          5.5406083563        1.8988412509        0.0070653061
 H          3.9413283227        3.8216082149        0.0139060457
 H          1.4768078805        3.3304643579        0.0109757818
 H         -2.7869119937        3.4254403672       -0.0029941982
 H         -5.2534364092        3.9162985552       -0.0102535374
 H         -6.8347096510        1.9849667767       -0.0118533514
 H         -5.1782130242       -3.9902905300        0.0039765758
 H         -2.8264817636       -4.8316245543        0.0077302021
 H         -0.9734369170       -3.1696549580        0.0062085785
 H          0.6194046431       -1.2303488258        0.0020718142
