  68
  -108.610124110000       0.146542853491154      !
 C          5.0911025837        5.1405016930       -0.1528087848
 O          3.7226854940        5.1104640308       -0.4807302515
 C          2.9927599970        4.0140132396       -0.1556500376
 C          1.6288702136        4.0911172941       -0.5220037275
 C          0.7537390892        3.0582331341       -0.2470783037
 C          1.2452872676        1.9313819205        0.3949158565
 C          2.6300830184        1.8267252517        0.7407504180
 C          3.4997078062        2.8851094257        0.4708031504
 C          2.8165000538        0.5402791725        1.3131480160
 C          3.9190736226       -0.1455734068        1.8260710467
 C          3.7246586405       -1.4006351292        2.3719755015
 C          2.4571526496       -1.9691173255        2.4516027669
 C          1.3431965687       -1.3066916243        1.9388013133
 C          1.5439766730       -0.0915308939        1.3204725917
 N          0.6098675848        0.7569034558        0.7248516824
 C         -0.6560133815        0.3721353527        0.3160833313
 C         -1.7618495407        1.1842874386        0.5474816763
 C         -3.0375517750        0.7685012536        0.2179727818
 C         -3.2486072305       -0.5068030579       -0.3803929903
 C         -2.1506742829       -1.2998800376       -0.6384161244
 C         -0.8533361982       -0.8953254607       -0.3395492501
 N          0.2381187783       -1.6649184037       -0.7162142736
 C          1.4130684175       -1.1654107693       -1.2627406349
 C          1.6406460987        0.0545768471       -1.8754658443
 C          2.9212039372        0.3186743980       -2.3362191355
 C          3.9370257422       -0.6276519489       -2.2214190349
 C          3.6934564477       -1.8776785870       -1.6857766011
 C          2.4159643940       -2.1656509568       -1.2177730609
 C          1.8073989744       -3.3270952153       -0.6498039669
 C          2.2736911441       -4.6027648673       -0.3467000456
 C          1.4115286954       -5.5008401550        0.2491457086
 C          0.0983969771       -5.1450982424        0.5586596341
 C         -0.3920429753       -3.8844252292        0.2594646829
 C          0.4595957655       -2.9835572069       -0.3585511761
 C         -4.6306286246       -0.9484207516       -0.7542858394
 C         -5.6873844819        0.0365356640       -0.3438851433
 C         -7.0299326619       -0.2340246698       -0.5620073516
 C         -8.0136179868        0.6666317491       -0.1959945821
 C         -7.6578210137        1.8694299975        0.4023415509
 C         -6.3310793785        2.1600420749        0.6300117739
 C         -5.3403412763        1.2486693028        0.2590606382
 O         -4.0550471243        1.6180459305        0.5146471350
 H          5.6420244543        4.3428941261       -0.6615310761
 H          5.4558619542        6.1072540242       -0.4960246542
 H          5.2456796804        5.0561166114        0.9275519194
 H          1.2945480549        4.9830101016       -1.0244778790
 H         -0.2804723793        3.1316598898       -0.5434941456
 H          4.5397980630        2.7955187449        0.7368588407
 H          4.9020415117        0.2986128214        1.7947538203
 H          4.5701691157       -1.9472767076        2.7632844901
 H          2.3285527950       -2.9351111470        2.9142878649
 H          0.3585974515       -1.7397853845        2.0287219155
 H         -1.6398466770        2.1325558182        1.0457599338
 H         -2.2952447535       -2.2453869353       -1.1401758486
 H          0.8505787223        0.7797127702       -1.9984202911
 H          3.1288286008        1.2737834414       -2.7942339536
 H          4.9268927774       -0.3827830579       -2.5776365756
 H          4.4756846094       -2.6193281289       -1.6304193260
 H          3.2945254952       -4.8754265608       -0.5662398473
 H          1.7568337410       -6.4949627977        0.4922592787
 H         -0.5460593978       -5.8632872537        1.0425959579
 H         -1.4046541950       -3.6150252763        0.5182724632
 H         -4.8432335612       -1.9223288959       -0.2972537422
 H         -4.6849200494       -1.1014259874       -1.8398506543
 H         -7.3017550343       -1.1705130825       -1.0277927397
 H         -9.0521067708        0.4350822610       -0.3741844039
 H         -8.4197857437        2.5771988911        0.6908299796
 H         -6.0272045366        3.0855956677        1.0931313812
  68
  -108.610094730000       0.142056964631788      !
 C          5.0760547289        5.1352293148       -0.2106677837
 O          3.7006866333        5.1081515099       -0.5088131137
 C          2.9756174750        4.0138048039       -0.1660905550
 C          1.6049352123        4.0916922119       -0.5053451838
 C          0.7347211210        3.0590453817       -0.2142952682
 C          1.2380336669        1.9314886886        0.4173902549
 C          2.6283163960        1.8278695122        0.7392267572
 C          3.4932050913        2.8857479311        0.4531619182
 C          2.8263883980        0.5396733171        1.3043444369
 C          3.9392640736       -0.1468162896        1.7930604094
 C          3.7574931800       -1.4064093691        2.3323785776
 C          2.4925965266       -1.9786541067        2.4294500479
 C          1.3685054313       -1.3152889309        1.9418476764
 C          1.5555739645       -0.0948352806        1.3290324580
 N          0.6099064349        0.7541314046        0.7529741650
 C         -0.6575087345        0.3647742483        0.3518685415
 C         -1.7655573493        1.1700134598        0.5952529047
 C         -3.0415475604        0.7520529410        0.2682785048
 C         -3.2502480108       -0.5209836764       -0.3355041611
 C         -2.1505022414       -1.3064614493       -0.6064402570
 C         -0.8526739934       -0.8983210962       -0.3131426467
 N          0.2377730544       -1.6630280557       -0.7008986226
 C          1.4110224113       -1.1597315727       -1.2475741225
 C          1.6373689938        0.0646273884       -1.8519514478
 C          2.9173037318        0.3323526923       -2.3128059984
 C          3.9332634002       -0.6151609051       -2.2077265579
 C          3.6899519970       -1.8701528065       -1.6836207251
 C          2.4133339671       -2.1614370174       -1.2148530812
 C          1.8056886073       -3.3275550436       -0.6563664637
 C          2.2714945197       -4.6070862582       -0.3683966085
 C          1.4107183607       -5.5098776752        0.2223960973
 C          0.0999377391       -5.1550224272        0.5428274408
 C         -0.3899534541       -3.8904736776        0.2585596940
 C          0.4593923968       -2.9854320244       -0.3562220332
 C         -4.6336724773       -0.9760789485       -0.6869971371
 C         -5.6859287815        0.0377894567       -0.3407073338
 C         -7.0228714448       -0.2098474652       -0.6134339073
 C         -8.0044079676        0.7107613957       -0.2941649278
 C         -7.6518607420        1.9098117580        0.3135906595
 C         -6.3303733756        2.1786205741        0.5933830198
 C         -5.3413924288        1.2483171074        0.2671359883
 O         -4.0606481716        1.5984327433        0.5683367829
 H          5.4361154126        6.0996926501       -0.5648316366
 H          5.2538942584        5.0536253346        0.8661906101
 H          5.6131749396        4.3344370874       -0.7288045599
 H          1.2612501257        4.9835115461       -1.0017592591
 H         -0.3046603626        3.1328090926       -0.4919983344
 H          4.5376527169        2.7958455685        0.7008056116
 H          4.9203725271        0.3002544803        1.7475446456
 H          4.6107719706       -1.9544484406        2.7042092703
 H          2.3748100258       -2.9486593697        2.8866085897
 H          0.3867005829       -1.7520758421        2.0443268391
 H         -1.6447032457        2.1156614196        1.0988543740
 H         -2.2940912371       -2.2490381778       -1.1139914102
 H          0.8472552963        0.7909478798       -1.9676687126
 H          3.1244364769        1.2913843546       -2.7628580080
 H          4.9218495638       -0.3680970363       -2.5651643619
 H          4.4716031767       -2.6130141950       -1.6370308831
 H          3.2903906909       -4.8794612629       -0.5968721286
 H          1.7554188555       -6.5072016850        0.4529347692
 H         -0.5430855730       -5.8765396737        1.0237441316
 H         -1.4003921201       -3.6221293322        0.5265890138
 H         -4.8531968249       -1.9157561909       -0.1641060361
 H         -4.6866869529       -1.2030964822       -1.7590791908
 H         -7.2918099447       -1.1441851245       -1.0857073023
 H         -9.0383829308        0.4974159371       -0.5160973371
 H         -8.4120256632        2.6328287525        0.5669733568
 H         -6.0298141591        3.1018761910        1.0633584885
  68
  -108.610098030000       0.142553900814175      !
 C          5.0326706302        5.2219300611       -0.1144173140
 O          3.6666391552        5.1706146837       -0.4497055553
 C          2.9546770297        4.0584381880       -0.1378815739
 C          1.5902039875        4.1169787146       -0.5030308415
 C          0.7309917646        3.0686617894       -0.2358211094
 C          1.2393811848        1.9448447326        0.3982552559
 C          2.6261787451        1.8568830533        0.7367805852
 C          3.4796189229        2.9303043329        0.4756145039
 C          2.8335701058        0.5674268640        1.2962144007
 C          3.9493668436       -0.1082657460        1.7925962125
 C          3.7769456324       -1.3713456127        2.3264690536
 C          2.5169077700       -1.9565991343        2.4128050128
 C          1.3903937560       -1.3041853247        1.9174679167
 C          1.5694469573       -0.0814667991        1.3062004787
 N          0.6210192723        0.7585020119        0.7225373896
 C         -0.6441373013        0.3670130010        0.3193944423
 C         -1.7500514333        1.1786849161        0.5536836739
 C         -3.0261709820        0.7683407445        0.2199875036
 C         -3.2387847978       -0.5034670871       -0.3864974919
 C         -2.1426565163       -1.2990932800       -0.6408371292
 C         -0.8438363043       -0.9006997521       -0.3368100529
 N          0.2410392638       -1.6802588614       -0.7088891944
 C          1.4243861312       -1.1976929845       -1.2517215935
 C          1.6738944253        0.0208581193       -1.8593919889
 C          2.9590801091        0.2651275200       -2.3167605529
 C          3.9588303076       -0.6993471133       -2.2053731435
 C          3.6929170873       -1.9475662076       -1.6767559902
 C          2.4102606262       -2.2155044268       -1.2111051128
 C          1.7818205301       -3.3695513485       -0.6498656048
 C          2.2265808978       -4.6544542748       -0.3531038987
 C          1.3498148012       -5.5403143463        0.2401516892
 C          0.0441683311       -5.1628483989        0.5545067115
 C         -0.4250127442       -3.8924581095        0.2608053753
 C          0.4401821929       -3.0047941308       -0.3571353209
 C         -4.6200976159       -0.9362483319       -0.7724814695
 C         -5.6760163523        0.0458891185       -0.3534444798
 C         -7.0186519686       -0.2218165404       -0.5738784480
 C         -8.0016335586        0.6772905961       -0.2019464093
 C         -7.6446978766        1.8759193621        0.4042021024
 C         -6.3177886851        2.1634766407        0.6347650311
 C         -5.3277393724        1.2532911434        0.2587769137
 O         -4.0423868019        1.6181949892        0.5191506209
 H          5.1830903198        5.1271952355        0.9654882949
 H          5.6006566072        4.4409500318       -0.6296578400
 H          5.3812420319        6.1993166501       -0.4441588693
 H          1.2411667553        5.0078176712       -0.9975047074
 H         -0.3037945739        3.1293129647       -0.5325429965
 H          4.5210942992        2.8536842867        0.7396234370
 H          4.9256590660        0.3500107588        1.7578039112
 H          4.6330622768       -1.9115262691        2.7031985409
 H          2.4054840525       -2.9283664317        2.8677963639
 H          0.4124890165       -1.7509884167        2.0136042055
 H         -1.6269380460        2.1238566363        1.0575066213
 H         -2.2882177154       -2.2424196340       -1.1464653470
 H          0.8969623290        0.7604503088       -1.9801870629
 H          3.1837241909        1.2181354207       -2.7709675480
 H          4.9527164200       -0.4700374467       -2.5602767796
 H          4.4613815029       -2.7037122057       -1.6257186761
 H          3.2420808766       -4.9438582827       -0.5759972466
 H          1.6780972776       -6.5415822760        0.4774592829
 H         -0.6115417102       -5.8710022929        1.0382124098
 H         -1.4318406946       -3.6066199668        0.5244653224
 H         -4.8373070278       -1.9161347000       -0.3312056761
 H         -4.6697157850       -1.0728149911       -1.8604550302
 H         -7.2911866349       -1.1546347743       -1.0469878225
 H         -9.0402291504        0.4479530732       -0.3824035295
 H         -8.4057537531        2.5832713867        0.6960098148
 H         -6.0136190454        3.0859633187        1.1038846801
  68
  -108.610043120000       0.134506792653719      !
 C          5.2069171106        4.9863405554       -0.2134454026
 O          3.8349972988        5.0028636034       -0.5281325565
 C          3.0690315218        3.9387571889       -0.1803938105
 C          1.7076649126        4.0532603623       -0.5502365264
 C          0.8006274647        3.0518228698       -0.2632955098
 C          1.2568082058        1.9185200443        0.3937715084
 C          2.6359969218        1.7810819830        0.7545517064
 C          3.5382600838        2.8082638482        0.4709486007
 C          2.7820579012        0.4994197627        1.3477098367
 C          3.8600390055       -0.2072922086        1.8857863522
 C          3.6253626506       -1.4488843998        2.4469419438
 C          2.3436858509       -1.9849072442        2.5139821997
 C          1.2538203041       -1.3018178665        1.9746034493
 C          1.4942893105       -0.0990311180        1.3474954560
 N          0.5883717643        0.7659863939        0.7305454760
 C         -0.6763612707        0.3930084682        0.3044567635
 C         -1.7838081922        1.2059347927        0.5221659320
 C         -3.0569999720        0.7793741885        0.1939907544
 C         -3.2611702313       -0.5049890084       -0.3851971757
 C         -2.1589713684       -1.2942589578       -0.6398972434
 C         -0.8654511438       -0.8768561938       -0.3465686396
 N          0.2371690750       -1.6310646588       -0.7245052710
 C          1.3988535432       -1.1089502192       -1.2792730656
 C          1.5965651971        0.1130920693       -1.8973656833
 C          2.8688421318        0.4019904989       -2.3685058861
 C          3.9047005721       -0.5218270238       -2.2561999943
 C          3.6917778381       -1.7737125080       -1.7113923913
 C          2.4233303585       -2.0861800984       -1.2331437408
 C          1.8432822867       -3.2568020758       -0.6546652942
 C          2.3392494325       -4.5195984668       -0.3446855065
 C          1.5000218003       -5.4318162749        0.2616964101
 C          0.1798437289       -5.1034736038        0.5737333819
 C         -0.3402019703       -3.8568798461        0.2673325131
 C          0.4893414364       -2.9408603065       -0.3588929285
 C         -4.6415550616       -0.9627044762       -0.7462446531
 C         -5.7050023976        0.0116123534       -0.3279113452
 C         -7.0472353085       -0.2830841435       -0.5139021605
 C         -8.0370858316        0.6093846551       -0.1444203412
 C         -7.6874818271        1.8286179409        0.4230689680
 C         -6.3608910796        2.1426236270        0.6196657904
 C         -5.3641241328        1.2385590211        0.2476863232
 O         -4.0794837264        1.6280478695        0.4768724137
 H          5.3691290508        4.9234481378        0.8670761666
 H          5.7195429850        4.1540321562       -0.7060487766
 H          5.6068888586        5.9282421118       -0.5850297153
 H          1.4028952366        4.9471898325       -1.0677358255
 H         -0.2305982176        3.1517346367       -0.5628994082
 H          4.5734468836        2.6920480954        0.7450633174
 H          4.8545092355        0.2108182672        1.8614001252
 H          4.4507159427       -2.0110037955        2.8587975689
 H          2.1841496311       -2.9419177856        2.9855487381
 H          0.2571557262       -1.7086806741        2.0537934053
 H         -1.6665246493        2.1607328659        1.0091576375
 H         -2.2989119187       -2.2454964251       -1.1322081910
 H          0.7898355107        0.8198953966       -2.0190960097
 H          3.0530280254        1.3595230077       -2.8313877792
 H          4.8862339354       -0.2584273168       -2.6218694788
 H          4.4899717165       -2.4979807819       -1.6563319165
 H          3.3648168098       -4.7710665342       -0.5675887240
 H          1.8685823841       -6.4160437426        0.5109876747
 H         -0.4460338497       -5.8328077452        1.0654611055
 H         -1.3582427121       -3.6086364080        0.5262427926
 H         -4.8390078004       -1.9384145782       -0.2864945261
 H         -4.7039579060       -1.1170111924       -1.8313476234
 H         -7.3138769292       -1.2320469884       -0.9573696858
 H         -9.0753251156        0.3586330969       -0.2967252613
 H         -8.4538862253        2.5311739097        0.7125300567
 H         -6.0627310171        3.0812960258        1.0596377376
  68
  -108.609891030000       0.114511338847463      !
 C          6.4566350158        1.6758100101       -0.1197168913
 O          5.2724317231        1.8812784601       -0.8516760788
 C          4.0823492444        1.5959820874       -0.2674663811
 C          2.9567443465        1.8098726894       -1.0980211690
 C          1.6844052630        1.5068830940       -0.6644677368
 C          1.5347000391        0.9662647691        0.6057096942
 C          2.6455746442        0.8669859706        1.4973883132
 C          3.9307643614        1.1558987868        1.0398441765
 C          2.1255917141        0.4289132828        2.7462050230
 C          2.7043867859        0.1469853990        3.9843434469
 C          1.8977246612       -0.3236978301        5.0044282510
 C          0.5361125208       -0.5308908671        4.8123278475
 C         -0.0669487599       -0.2463733448        3.5866706199
 C          0.7247702348        0.2488525618        2.5733035363
 N          0.3908682507        0.5580355053        1.2530548720
 C         -0.8051479369        0.2354308582        0.6348352824
 C         -2.0134808881        0.6296144558        1.2051971304
 C         -3.2221393284        0.3781246642        0.5877452454
 C         -3.2623928951       -0.3237229826       -0.6510873037
 C         -2.0710272354       -0.7261830635       -1.2124989030
 C         -0.8357728031       -0.4870585088       -0.6138132849
 N          0.3216401921       -0.9711496440       -1.2043352250
 C          0.7214408954       -0.7019890926       -2.5088443166
 C          0.0263536877       -0.0880768752       -3.5350876539
 C          0.6825881560        0.1105707337       -4.7418654157
 C          2.0047922347       -0.2894199423       -4.9177587336
 C          2.7155084061       -0.8756179355       -3.8883767365
 C          2.0800586483       -1.0789311971       -2.6676006233
 C          2.5150714847       -1.5981068863       -1.4097370994
 C          3.7258550059       -2.0937299955       -0.9402495543
 C          3.7950507668       -2.5534155613        0.3601893981
 C          2.6662861283       -2.5715064181        1.1807148068
 C          1.4513028568       -2.0811346377        0.7354904445
 C          1.3970788895       -1.5339319725       -0.5366249347
 C         -4.5772726321       -0.6505360985       -1.2895590671
 C         -5.7315642207        0.0345625675       -0.6162050756
 C         -7.0059995248       -0.0239009632       -1.1593608604
 C         -8.0810477545        0.5838185888       -0.5364742306
 C         -7.8887749955        1.2651999760        0.6591573009
 C         -6.6313006682        1.3394626282        1.2163213545
 C         -5.5473721431        0.7281508369        0.5833345741
 O         -4.3392776680        0.8510298415        1.1994692714
 H          6.5531114543        0.6324705686        0.1967871364
 H          7.2706445157        1.9265462475       -0.7978285510
 H          6.5034087608        2.3273302026        0.7586763650
 H          3.1262377703        2.2112364171       -2.0826238394
 H          0.8334901320        1.6865106438       -1.3030038672
 H          4.7708058443        1.0289931911        1.7022929371
 H          3.7642107268        0.2839151448        4.1342208355
 H          2.3327519353       -0.5469511748        5.9677934890
 H         -0.0661267019       -0.9193869604        5.6188777132
 H         -1.1212055658       -0.4275131312        3.4470874326
 H         -2.0108791500        1.2001923457        2.1199536921
 H         -2.0938945588       -1.2963622373       -2.1294919025
 H         -0.9913460901        0.2472681042       -3.4075796071
 H          0.1579827290        0.5878227757       -5.5557069599
 H          2.4819302054       -0.1248574092       -5.8726391740
 H          3.7477433373       -1.1617288274       -4.0191512808
 H          4.5911773307       -2.1189500022       -1.5852550960
 H          4.7307076075       -2.9300081218        0.7468829191
 H          2.7382273687       -2.9771594272        2.1781671042
 H          0.5778778180       -2.1232146137        1.3683261035
 H         -4.7389199068       -1.7364591100       -1.2524640001
 H         -4.5544355351       -0.3803634382       -2.3511635967
 H         -7.1509039045       -0.5579638845       -2.0877988691
 H         -9.0639618896        0.5270379325       -0.9775436165
 H         -8.7231568224        1.7393512962        1.1526646478
 H         -6.4546287924        1.8645942156        2.1418283759
  68
  -108.609887160000       0.114043349317906      !
 C          6.4575265864        1.7021910746       -0.1040885264
 O          5.2746535082        1.8994790449       -0.8407053179
 C          4.0841392670        1.6078773400       -0.2605445836
 C          2.9603103584        1.8147480271       -1.0953697197
 C          1.6879915689        1.5062102046       -0.6658202957
 C          1.5363235609        0.9671186493        0.6048051801
 C          2.6450077554        0.8730893975        1.4999176700
 C          3.9303005354        1.1679201239        1.0465168547
 C          2.1232076412        0.4346245089        2.7478463376
 C          2.6994036856        0.1563705955        3.9880719099
 C          1.8913950293       -0.3157501089        5.0064607442
 C          0.5311969808       -0.5282918184        4.8105939361
 C         -0.0693086178       -0.2473580487        3.5828228447
 C          0.7236042092        0.2496245066        2.5712627970
 N          0.3922135886        0.5567807644        1.2498960891
 C         -0.8035826462        0.2334910702        0.6316978533
 C         -2.0111564817        0.6280299919        1.2031448768
 C         -3.2206604464        0.3744524232        0.5883018560
 C         -3.2625304772       -0.3302892788       -0.6488590342
 C         -2.0717422688       -0.7317920950       -1.2121271779
 C         -0.8353806898       -0.4901996853       -0.6162659025
 N          0.3218394228       -0.9740509386       -1.2073000441
 C          0.7201745430       -0.7101230758       -2.5133717190
 C          0.0227510537       -0.1046666161       -3.5430925432
 C          0.6769322563        0.0861668198       -4.7522485906
 C          1.9996906270       -0.3125039655       -4.9270432751
 C          2.7129376950       -0.8895770420       -3.8942429589
 C          2.0793092592       -1.0857910925       -2.6714023191
 C          2.5158052906       -1.5996877578       -1.4118812319
 C          3.7270231520       -2.0934718636       -0.9415231927
 C          3.7962937846       -2.5516621474        0.3594157475
 C          2.6672625692       -2.5698893712        1.1797559368
 C          1.4522576148       -2.0804052922        0.7340040998
 C          1.3979831088       -1.5343369193       -0.5386664179
 C         -4.5788460908       -0.6613886556       -1.2823198641
 C         -5.7311011604        0.0309157444       -0.6126476389
 C         -7.0054470296       -0.0242833369       -1.1563747478
 C         -8.0783841656        0.5902777096       -0.5364639076
 C         -7.8842041700        1.2752424211        0.6568208837
 C         -6.6268523409        1.3461218835        1.2146831328
 C         -5.5450838154        0.7280354048        0.5845718306
 O         -4.3368829175        0.8484696004        1.2008830181
 H          7.2723078331        1.9562505942       -0.7799563776
 H          6.4974055266        2.3558365371        0.7730273528
 H          6.5588373033        0.6601093653        0.2148424102
 H          3.1313017981        2.2152556971       -2.0800607148
 H          0.8385738761        1.6806364969       -1.3077797716
 H          4.7687365365        1.0454399092        1.7118474110
 H          3.7583123746        0.2968600590        4.1408687964
 H          2.3244400047       -0.5366714992        5.9712432949
 H         -0.0720466084       -0.9181692190        5.6157347424
 H         -1.1224944797       -0.4323964263        3.4403416021
 H         -2.0074917248        1.1999885701        2.1170703400
 H         -2.0957475392       -1.3035355766       -2.1281246402
 H         -0.9953952892        0.2298536191       -3.4167577150
 H          0.1502026867        0.5561510732       -5.5689671601
 H          2.4751862395       -0.1540449469       -5.8837369442
 H          3.7454992804       -1.1748524236       -4.0242918102
 H          4.5926207156       -2.1185626787       -1.5862103805
 H          4.7321549388       -2.9271821011        0.7465778347
 H          2.7389774793       -2.9757789301        2.1771377546
 H          0.5784801335       -2.1230077262        1.3663254668
 H         -4.7415875046       -1.7467926684       -1.2349508520
 H         -4.5577522081       -0.4007744318       -2.3462688575
 H         -7.1522627483       -0.5622733010       -2.0822545395
 H         -9.0612109230        0.5360160919       -0.9780787646
 H         -8.7168684426        1.7551704100        1.1476856547
 H         -6.4483299837        1.8742339222        2.1381410215
  68
  -108.609827040000       0.107014031290323      !
 C          6.4341556894        1.8455422939       -0.0916940956
 O          5.2500293003        1.9876558603       -0.8388619268
 C          4.0668988462        1.6588132452       -0.2630923825
 C          2.9397028229        1.8380473690       -1.0991150691
 C          1.6738315159        1.5020521016       -0.6702513145
 C          1.5324479225        0.9618082742        0.6008887634
 C          2.6439664097        0.8839232430        1.4936474404
 C          3.9225698123        1.2088444868        1.0417787715
 C          2.1321404353        0.4335047621        2.7415716462
 C          2.7154701514        0.1576078589        3.9789834772
 C          1.9165669342       -0.3294381132        4.9975230379
 C          0.5583210762       -0.5581101774        4.8050897954
 C         -0.0493163793       -0.2798290692        3.5804062940
 C          0.7346724822        0.2306316577        2.5683970796
 N          0.3956116202        0.5364858100        1.2493686332
 C         -0.8027488184        0.2108527072        0.6375419701
 C         -2.0084720437        0.6033044107        1.2139372795
 C         -3.2190955722        0.3528273787        0.5999560147
 C         -3.2637622948       -0.3487334594       -0.6394130815
 C         -2.0746967151       -0.7496299199       -1.2066172572
 C         -0.8374066614       -0.5097394328       -0.6120667560
 N          0.3198183703       -0.9927478396       -1.2034558741
 C          0.7179642270       -0.7285914135       -2.5089670389
 C          0.0220049245       -0.1170932837       -3.5362801793
 C          0.6761266253        0.0750214364       -4.7451249547
 C          1.9972371465       -0.3287647520       -4.9219487374
 C          2.7087671293       -0.9124815902       -3.8916744240
 C          2.0753775169       -1.1098587079       -2.6688841752
 C          2.5104596210       -1.6280092416       -1.4104620135
 C          3.7191770559       -2.1306549273       -0.9425186944
 C          3.7874031022       -2.5910087068        0.3576926930
 C          2.6597797145       -2.6022047399        1.1799431568
 C          1.4470776085       -2.1047766170        0.7363741411
 C          1.3940532837       -1.5584165852       -0.5361335379
 C         -4.5830951473       -0.6817796385       -1.2652713507
 C         -5.7271226523        0.0408789957       -0.6138175613
 C         -6.9957167399        0.0152074310       -1.1725182976
 C         -8.0619089420        0.6518017490       -0.5630695556
 C         -7.8667290120        1.3283590473        0.6348698472
 C         -6.6142567413        1.3717386381        1.2064651509
 C         -5.5389347549        0.7328657616        0.5862013617
 O         -4.3340704029        0.8285792508        1.2133810327
 H          6.4335813872        2.4971719106        0.7879446539
 H          6.5841134240        0.8085117627        0.2248461783
 H          7.2419564088        2.1416539752       -0.7589167333
 H          3.1020684064        2.2441593223       -2.0830085439
 H          0.8214830730        1.6611645002       -1.3121820623
 H          4.7631903763        1.1036739513        1.7073273980
 H          3.7729207654        0.3111564087        4.1294960809
 H          2.3552362057       -0.5485768277        5.9601754965
 H         -0.0373369207       -0.9585255673        5.6106884716
 H         -1.1005963078       -0.4770230015        3.4396494178
 H         -2.0024258067        1.1730339689        2.1292446266
 H         -2.1007929970       -1.3198489702       -2.1234947318
 H         -0.9947491845        0.2208423322       -3.4077299468
 H          0.1509663444        0.5499286249       -5.5599989100
 H          2.4728013662       -0.1690439972       -5.8784180401
 H          3.7400839187       -1.2014300158       -4.0236895854
 H          4.5836122323       -2.1609739241       -1.5884814300
 H          4.7214622002       -2.9727854250        0.7429730051
 H          2.7306198303       -3.0082267210        2.1773523430
 H          0.5739833124       -2.1428261823        1.3698795304
 H         -4.7584589345       -1.7635839977       -1.1849214637
 H         -4.5590996386       -0.4536701059       -2.3361726548
 H         -7.1439081664       -0.5167824728       -2.1015944321
 H         -9.0405138351        0.6207666450       -1.0161161057
 H         -8.6943451647        1.8249094866        1.1175767645
 H         -6.4348761569        1.8939012682        2.1331473964
  68
  -108.609751290000       9.877076895347060E-002 !
 C          4.8825752640        5.4012735983        0.0316092313
 O          3.5293947327        5.2949094698       -0.3409852320
 C          2.8635664798        4.1424450334       -0.0762123128
 C          1.4989295455        4.1578701129       -0.4422994564
 C          0.6792606206        3.0721194710       -0.2011729936
 C          1.2277723709        1.9529754253        0.4073399722
 C          2.6205614716        1.9019436217        0.7248567647
 C          3.4333334814        3.0129663799        0.4939742621
 C          2.8774417046        0.6060733701        1.2485468935
 C          4.0237284076       -0.0474542345        1.7020881561
 C          3.9011606585       -1.3263122212        2.2108190691
 C          2.6589827200       -1.9461524466        2.3214595652
 C          1.5030444609       -1.3150952775        1.8708577227
 C          1.6322847580       -0.0792435939        1.2722110196
 N          0.6494846624        0.7420753315        0.7208708683
 C         -0.6206280799        0.3347640653        0.3544789004
 C         -1.7243119776        1.1458104038        0.6060677185
 C         -3.0063537025        0.7351107924        0.2995467034
 C         -3.2325197535       -0.5465929985       -0.2818246089
 C         -2.1412335672       -1.3416327843       -0.5548584167
 C         -0.8346532981       -0.9389380357       -0.2885657780
 N          0.2353505508       -1.7270524599       -0.6818158846
 C          1.4105237100       -1.2629079787       -1.2561132640
 C          1.6665307255       -0.0458312693       -1.8650566954
 C          2.9413288399        0.1758942327       -2.3590919807
 C          3.9258999365       -0.8082919486       -2.2816813011
 C          3.6519696665       -2.0531504911       -1.7500441571
 C          2.3790837429       -2.2985866375       -1.2473233531
 C          1.7481421956       -3.4429912421       -0.6690851044
 C          2.1814047246       -4.7343303577       -0.3838562898
 C          1.3103266130       -5.6047822544        0.2404734910
 C          0.0230709656       -5.2046592289        0.5975807357
 C         -0.4348516273       -3.9272269946        0.3149011315
 C          0.4227026211       -3.0561250894       -0.3361004191
 C         -4.6258307713       -1.0019078994       -0.5898913804
 C         -5.6557093130        0.0590171145       -0.3276315435
 C         -6.9889180378       -0.1546688256       -0.6437797747
 C         -7.9503365086        0.8076931125       -0.3935953766
 C         -7.5812291177        2.0149169099        0.1878043974
 C         -6.2631470303        2.2505627183        0.5098627573
 C         -5.2943253562        1.2780799868        0.2533026124
 O         -4.0145899819        1.5976005749        0.5896974501
 H          5.5033738130        4.6726306866       -0.4992423307
 H          5.1876049762        6.4081255442       -0.2490418841
 H          5.0106991552        5.2695931041        1.1107795412
 H          1.1153147926        5.0479402224       -0.9119496445
 H         -0.3569669920        3.1044248725       -0.4970641303
 H          4.4781801652        2.9666336417        0.7521135791
 H          4.9857119641        0.4391987821        1.6519770575
 H          4.7817428467       -1.8510332122        2.5511545874
 H          2.5856187778       -2.9279696372        2.7624481238
 H          0.5408098440       -1.7891307525        1.9894296825
 H         -1.5924962154        2.0949568418        1.0996832379
 H         -2.2975185065       -2.2909463273       -1.0457065152
 H          0.9021933505        0.7106328919       -1.9581936839
 H          3.1711072362        1.1261156169       -2.8165760091
 H          4.9127489759       -0.5964308573       -2.6658281883
 H          4.4068812376       -2.8241707923       -1.7248298261
 H          3.1847634401       -5.0403155590       -0.6375294121
 H          1.6302232708       -6.6104720421        0.4703905255
 H         -0.6276824087       -5.8996097761        1.1064424640
 H         -1.4267137129       -3.6244041858        0.6138700652
 H         -4.8614508277       -1.8853909649        0.0181361448
 H         -4.6897091973       -1.3246363041       -1.6356042095
 H         -7.2715009689       -1.0960861340       -1.0933477491
 H         -8.9818156562        0.6203621205       -0.6482905997
 H         -8.3256623177        2.7705517174        0.3866586645
 H         -5.9493891344        3.1797007310        0.9591376667
