  68
  -108.193655500800       0.248164586719451      !
 C          5.0285691751        5.2246992579       -0.1594624489
 O          3.6621043473        5.1699358865       -0.4924313830
 C          2.9514214652        4.0595241500       -0.1715319633
 C          1.5863901279        4.1143980994       -0.5351608426
 C          0.7283461968        3.0674108971       -0.2591291938
 C          1.2384774010        1.9486053860        0.3823673375
 C          2.6258177695        1.8641343427        0.7195549314
 C          3.4780792931        2.9362648240        0.4493927041
 C          2.8349705964        0.5789285184        1.2880403918
 C          3.9519762371       -0.0923129782        1.7877313147
 C          3.7812609942       -1.3516109593        2.3310037462
 C          2.5217875710       -1.9371581758        2.4233733871
 C          1.3940836784       -1.2891952365        1.9249113509
 C          1.5713519472       -0.0708145409        1.3045300458
 N          0.6214680795        0.7641893969        0.7161302324
 C         -0.6439616234        0.3688437190        0.3176349385
 C         -1.7501546698        1.1813734968        0.5475938771
 C         -3.0264350043        0.7676692545        0.2186958939
 C         -3.2389475316       -0.5086662296       -0.3782379405
 C         -2.1425807403       -1.3053035651       -0.6283493437
 C         -0.8436326918       -0.9037482039       -0.3290650831
 N          0.2413029345       -1.6851821269       -0.6970134512
 C          1.4235177874       -1.2056913269       -1.2450127778
 C          1.6712492802        0.0086005204       -1.8618668188
 C          2.9556030708        0.2504973889       -2.3228191276
 C          3.9562358509       -0.7124000234       -2.2058509899
 C          3.6920100990       -1.9569452488       -1.6678093773
 C          2.4102150588       -2.2224482901       -1.1984067398
 C          1.7834380570       -3.3728563281       -0.6279131173
 C          2.2295850058       -4.6552398656       -0.3224623230
 C          1.3543255526       -5.5374202296        0.2784517656
 C          0.0488406143       -5.1586519045        0.5919098300
 C         -0.4217117552       -3.8907765402        0.2896593185
 C          0.4419403150       -3.0069801475       -0.3359358862
 C         -4.6204779821       -0.9452647527       -0.7591102056
 C         -5.6765430521        0.0391045807       -0.3457170129
 C         -7.0192867716       -0.2311919926       -0.5622970640
 C         -8.0024188058        0.6698614079       -0.1955082101
 C         -7.6455299518        1.8731245571        0.4014157025
 C         -6.3185132778        2.1633340817        0.6280026259
 C         -5.3283109165        1.2511784161        0.2572282054
 O         -4.0428669482        1.6189180230        0.5131225202
 H          5.1805859169        5.1379196886        0.9208880085
 H          5.5964146586        4.4404209609       -0.6698248060
 H          5.3759380103        6.1999245990       -0.4967849743
 H          1.2359836503        5.0013637331       -1.0355933606
 H         -0.3069037625        3.1251372189       -0.5548155196
 H          4.5199840871        2.8623375041        0.7124734129
 H          4.9278728577        0.3664240415        1.7482282105
 H          4.6383157356       -1.8884058139        2.7104301704
 H          2.4117388591       -2.9056787712        2.8855651135
 H          0.4166525786       -1.7360149407        2.0256757576
 H         -1.6270414826        2.1302696665        1.0443667140
 H         -2.2881456513       -2.2523842031       -1.1269089581
 H          0.8935904128        0.7467187156       -1.9869258239
 H          3.1788872404        1.2003489000       -2.7842509244
 H          4.9494464929       -0.4849349359       -2.5638193869
 H          4.4611151990       -2.7121295999       -1.6123740366
 H          3.2449867273       -4.9455000777       -0.5446889743
 H          1.6836971084       -6.5366945476        0.5225561715
 H         -0.6056517134       -5.8637620094        1.0816733765
 H         -1.4283811710       -3.6037796572        0.5526650405
 H         -4.8363255172       -1.9220823825       -0.3104246715
 H         -4.6715305085       -1.0897641960       -1.8459921837
 H         -7.2917869536       -1.1676230133       -1.0282349101
 H         -9.0410953042        0.4384481006       -0.3728223041
 H         -8.4067053350        2.5820110675        0.6891597319
 H         -6.0143760183        3.0894283564        1.0899809886
  68
  -108.193567031800       0.225986382432401      !
 C          5.0870081418        5.1430377183       -0.1973446013
 O          3.7181520844        5.1096032116       -0.5230980493
 C          2.9895127395        4.0149996656       -0.1890314447
 C          1.6250489758        4.0884283367       -0.5540003070
 C          0.7510854413        3.0569176836       -0.2703426360
 C          1.2443888984        1.9351230738        0.3791173887
 C          2.6297503630        1.8340090692        0.7237380555
 C          3.4981953946        2.8910511115        0.4448810912
 C          2.8179449418        0.5518918193        1.3051948414
 C          3.9217584557       -0.1293990977        1.8215190453
 C          3.7290604310       -1.3806081293        2.3767957481
 C          2.4620967769       -1.9494387262        2.4623457161
 C          1.3469185832       -1.2915816373        1.9463293041
 C          1.5459094424       -0.0807936639        1.3189109585
 N          0.6103208804        0.7625994018        0.7184718847
 C         -0.6558462252        0.3739330696        0.3143035763
 C         -1.7619657454        1.1869220732        0.5413681109
 C         -3.0378187504        0.7678066754        0.2166962046
 C         -3.2487588134       -0.5119650856       -0.3720954554
 C         -2.1505944831       -1.3060786801       -0.6259113209
 C         -0.8531404921       -0.8984010024       -0.3318297465
 N          0.2383605476       -1.6698974335       -0.7044455552
 C          1.4121602024       -1.1734983871       -1.2562498250
 C          1.6379528861        0.0421769390       -1.8781378638
 C          2.9176591195        0.3038734154       -2.3426121902
 C          3.9343546377       -0.6408394745       -2.2223860027
 C          3.6924840710       -1.8871245859       -1.6773378724
 C          2.4158718463       -2.1726403249       -1.2054445190
 C          1.8089845762       -3.3303818746       -0.6281959824
 C          2.2766653061       -4.6034703370       -0.3165007186
 C          1.4160223428       -5.4978359353        0.2870714307
 C          0.1030616888       -5.1408317778        0.5958568589
 C         -0.3887499736       -3.8827291133        0.2882135814
 C          0.4613358657       -2.9857396461       -0.3375334137
 C         -4.6309740985       -0.9573125574       -0.7408117674
 C         -5.6878906146        0.0298123377       -0.3360739096
 C         -7.0305414812       -0.2433219842       -0.5503216638
 C         -8.0143867802        0.6592371559       -0.1894621664
 C         -7.6586508130        1.8666121064        0.3996209271
 C         -6.3318080834        2.1598552205        0.6232932845
 C         -5.3409089220        1.2465493960        0.2575633502
 O         -4.0555335054        1.6187268633        0.5086381972
 H          5.6378112754        4.3421669763       -0.7010439864
 H          5.4505538962        6.1075432775       -0.5480868314
 H          5.2431751327        5.0666140104        0.8833799056
 H          1.2893454548        4.9764006374       -1.0624614146
 H         -0.2835988393        3.1274218948       -0.5658164877
 H          4.5387277328        2.8041673345        0.7101046293
 H          4.9043462579        0.3152782122        1.7855837438
 H          4.5755344839       -1.9237657550        2.7708632232
 H          2.3348784722       -2.9121428979        2.9322134278
 H          0.3627740052       -1.7247424792        2.0407881635
 H         -1.6399732474        2.1388737358        1.0325755038
 H         -2.2951615584       -2.2553109794       -1.1205881227
 H          0.8471665932        0.7658138152       -2.0052326026
 H          3.1239169297        1.2557857208       -2.8078428190
 H          4.9235326313       -0.3978281030       -2.5817755235
 H          4.4753480843       -2.6277712747       -1.6177074521
 H          3.2973935206       -4.8769603681       -0.5355030266
 H          1.7624192676       -6.4899103536        0.5369056363
 H         -0.5401691023       -5.8559666972        1.0859079145
 H         -1.4011971254       -3.6122095096        0.5464948093
 H         -4.8421994038       -1.9280342984       -0.2764202919
 H         -4.6866840891       -1.1182361220       -1.8251590972
 H         -7.3023162570       -1.1833693787       -1.0089100897
 H         -9.0529516012        0.4256284841       -0.3644931172
 H         -8.4207400526        2.5758906988        0.6840440263
 H         -6.0279764094        3.0889725442        1.0792499228
  68
  -108.193401132100       0.189600748196281      !
 C          5.2028330088        4.9885454180       -0.2570606269
 O          3.8304607843        5.0017523433       -0.5699264774
 C          3.0657902311        3.9396327351       -0.2133747263
 C          1.7038195541        4.0504236316       -0.5821224831
 C          0.7979447031        3.0504233451       -0.2866240708
 C          1.2559056586        1.9222739128        0.3780291101
 C          2.6357030780        1.7884961063        0.7378563831
 C          3.5367888283        2.8142608012        0.4455151774
 C          2.7835673804        0.5112943339        1.3401189544
 C          3.8628377058       -0.1906769216        1.8818045914
 C          3.6298898858       -1.4283272216        2.4523103380
 C          2.3487149223       -1.9648057571        2.5250550860
 C          1.2575762396       -1.2864748232        1.9822558929
 C          1.4962535459       -0.0881045962        1.3460737782
 N          0.5888159260        0.7717225297        0.7241224507
 C         -0.6762308941        0.3947082444        0.3025414436
 C         -1.7839867870        1.2083695589        0.5158893334
 C         -3.0573143299        0.7784803170        0.1926210047
 C         -3.2613240704       -0.5102164085       -0.3769171858
 C         -2.1588860666       -1.3004951215       -0.6274197096
 C         -0.8652720706       -0.8800018924       -0.3389589975
 N          0.2373877711       -1.6361166543       -0.7129504321
 C          1.3978966061       -1.1171854939       -1.2731390542
 C          1.5938146775        0.1004734135       -1.9003859207
 C          2.8652099004        0.3868861025       -2.3754079737
 C          3.9019245707       -0.5353151153       -2.2578420641
 C          3.6907151996       -1.7833611536       -1.7036396025
 C          2.4231772604       -2.0932877754       -1.2213431822
 C          1.8448287031       -3.2601018244       -0.6335449055
 C          2.3421870144       -4.5202377034       -0.3150831649
 C          1.5045026055       -5.4286451353        0.2991025932
 C          0.1845153621       -5.0990269915        0.6106016755
 C         -0.3369041732       -3.8550852618        0.2958705845
 C          0.4910652933       -2.9430278585       -0.3381721742
 C         -4.6418670565       -0.9715790416       -0.7326791766
 C         -5.7054641379        0.0049614776       -0.3199490710
 C         -7.0477330871       -0.2920839781       -0.5018992324
 C         -8.0377399958        0.6023101698       -0.1375273644
 C         -7.6882637673        1.8259022856        0.4205815686
 C         -6.3616367067        2.1423219124        0.6130189730
 C         -5.3647081026        1.2363192593        0.2462241627
 O         -4.0800427835        1.6284258568        0.4707597608
 H          5.3666088209        4.9336399085        0.8236603823
 H          5.7153975035        4.1530572986       -0.7443160873
 H          5.6015691222        5.9280163401       -0.6360523695
 H          1.3976467058        4.9403350502       -1.1056832071
 H         -0.2337758370        3.1473811748       -0.5854938944
 H          4.5724470615        2.7008168735        0.7190095811
 H          4.8569556634        0.2279881706        1.8529753813
 H          4.4562460279       -1.9868172204        2.8670822938
 H          2.1905657959       -2.9184778873        3.0037975050
 H          0.2613323279       -1.6934953295        2.0658085702
 H         -1.6667433460        2.1667740404        0.9957544568
 H         -2.2987966490       -2.2553947399       -1.1125979177
 H          0.7863796651        0.8057689093       -2.0261196359
 H          3.0480204620        1.3411618163       -2.8455045132
 H          4.8827439311       -0.2738501637       -2.6268011163
 H          4.4895340814       -2.5066127284       -1.6444347910
 H          3.3676307862       -4.7725547883       -0.5375952732
 H          1.8741582862       -6.4107564612        0.5550298642
 H         -0.4401187355       -5.8252306367        1.1085049766
 H         -1.3547683428       -3.6057250367        0.5544016267
 H         -4.8379350693       -1.9440645708       -0.2655633491
 H         -4.7056757674       -1.1338255965       -1.8165415469
 H         -7.3142777542       -1.2444482541       -0.9380734031
 H         -9.0760017243        0.3496808523       -0.2865406347
 H         -8.4547932498        2.5299733079        0.7060020667
 H         -6.0635707470        3.0843941346        1.0457281379
  68
  -108.193186652200       0.151102590318261      !
 C          4.8784930654        5.4050330240       -0.0148410319
 O          3.5248762599        5.2949199806       -0.3847520667
 C          2.8602968377        4.1439282630       -0.1106015680
 C          1.4951398094        4.1556402336       -0.4748827918
 C          0.6766360749        3.0710712452       -0.2246522587
 C          1.2268486217        1.9568346497        0.3912856664
 C          2.6201172711        1.9091817830        0.7072196977
 C          3.4317190941        3.0190921629        0.4670571097
 C          2.8787152958        0.6173820331        1.2400414145
 C          4.0261309564       -0.0319378418        1.6967603809
 C          3.9052476588       -1.3071210907        2.2150292832
 C          2.6636982493       -1.9270675781        2.3319509321
 C          1.5066522805       -1.3002032265        1.8783496305
 C          1.6341156480       -0.0686797384        1.2704735728
 N          0.6499221399        0.7478324459        0.7144989699
 C         -0.6203887781        0.3368884653        0.3528815804
 C         -1.7243394227        1.1489278931        0.6000580045
 C         -3.0064933087        0.7350259131        0.2983514391
 C         -3.2324913867       -0.5510783365       -0.2732857017
 C         -2.1409805257       -1.3472783036       -0.5420065875
 C         -0.8343380685       -0.9416576293       -0.2805028839
 N          0.2357177085       -1.7318303813       -0.6694577461
 C          1.4097351996       -1.2710273522       -1.2487875592
 C          1.6639651013       -0.0582584684       -1.8669996609
 C          2.9379041634        0.1607959736       -2.3644307731
 C          3.9233326049       -0.8220545906       -2.2811802355
 C          3.6510929567       -2.0631851819       -1.7400434083
 C          2.3790962704       -2.3058844650       -1.2337557712
 C          1.7498340960       -3.4464906420       -0.6462566033
 C          2.1844785026       -4.7353760637       -0.3521695132
 C          1.3149353132       -5.6018795580        0.2797462979
 C          0.0278736149       -5.2001163025        0.6357092070
 C         -0.4314166647       -3.9251372402        0.3443077611
 C          0.4245650224       -3.0581896045       -0.3142649269
 C         -4.6258825464       -1.0096894692       -0.5760550728
 C         -5.6562036676        0.0523556671       -0.3201440857
 C         -6.9896881836       -0.1646471333       -0.6328511680
 C         -7.9514909607        0.7988005386       -0.3883880618
 C         -7.5824948702        2.0105346004        0.1836239215
 C         -6.2641454892        2.2495286468        0.5021010461
 C         -5.2949406811        1.2759192536        0.2513262536
 O         -4.0149819701        1.5988621173        0.5835778544
 H          5.4991070318        4.6729826301       -0.5412014005
 H          5.1823633526        6.4100282025       -0.3032964959
 H          5.0082207898        5.2813696418        1.0650858763
 H          1.1101922591        5.0419519548       -0.9505121580
 H         -0.3600271220        3.1004252039       -0.5193226342
 H          4.4769594538        2.9754407768        0.7240675555
 H          4.9876722645        0.4550582580        1.6417353384
 H          4.7867031630       -1.8286683231        2.5579725032
 H          2.5916977328       -2.9056780578        2.7802316779
 H          0.5449456705       -1.7740800678        2.0017414238
 H         -1.5925601058        2.1017690272        1.0865131635
 H         -2.2972250057       -2.3002846500       -1.0256589495
 H          0.8989218987        0.6969266340       -1.9646137379
 H          3.1663200556        1.1078082013       -2.8291935592
 H          4.9094835813       -0.6122748154       -2.6682508713
 H          4.4066268377       -2.8334314225       -1.7102301374
 H          3.1877159283       -5.0424588804       -0.6049945909
 H          1.6359190361       -6.6056145176        0.5165864214
 H         -0.6216398626       -5.8918045207        1.1505646501
 H         -1.4230919545       -3.6208757748        0.6424345026
 H         -4.8599812551       -1.8888651580        0.0387656427
 H         -4.6909716501       -1.3401288264       -1.6192821034
 H         -7.2721790059       -1.1095496631       -1.0751058114
 H         -8.9831807644        0.6088298755       -0.6402592296
 H         -8.3272264747        2.7670474843        0.3779712004
 H         -5.9504707832        3.1821735257        0.9441090965
  68
  -108.192866587200       0.107691200850056      !
 C          6.4323194553        1.8497695468       -0.1281118675
 O          5.2468103211        1.9804889271       -0.8751673377
 C          4.0649477414        1.6586000341       -0.2929009997
 C          2.9361858730        1.8252573658       -1.1294125996
 C          1.6713420586        1.4941112301       -0.6937987023
 C          1.5325849623        0.9713798561        0.5849304285
 C          2.6456729914        0.9068329525        1.4767971324
 C          3.9232202206        1.2265991003        1.0183121733
 C          2.1363538569        0.4732704962        2.7316975567
 C          2.7220127880        0.2150330344        3.9718176026
 C          1.9252643987       -0.2585798671        4.9983485518
 C          0.5669044235       -0.4910897058        4.8113976775
 C         -0.0430429592       -0.2303136144        3.5840129166
 C          0.7387808899        0.2667889839        2.5637130516
 N          0.3972260248        0.5540670917        1.2411561961
 C         -0.8018662315        0.2189445328        0.6359230547
 C         -2.0069733052        0.6182693888        1.2088759225
 C         -3.2184002727        0.3582550595        0.6004695486
 C         -3.2645158234       -0.3604234296       -0.6289990632
 C         -2.0760432681       -0.7680797665       -1.1926166623
 C         -0.8379729132       -0.5188962617       -0.6035378911
 N          0.3186928042       -1.0090193087       -1.1901483249
 C          0.7144037807       -0.7625979129       -2.4998610647
 C          0.0161649869       -0.1659842314       -3.5343543241
 C          0.6680790771        0.0099653805       -4.7468470908
 C          1.9892553312       -0.3950633808       -4.9203058856
 C          2.7030446120       -0.9638437457       -3.8832624036
 C          2.0718907830       -1.1448440454       -2.6567878397
 C          2.5095569535       -1.6451519117       -1.3920573894
 C          3.7195139066       -2.1402099342       -0.9192538374
 C          3.7903426426       -2.5824719422        0.3870836588
 C          2.6641139694       -2.5832859672        1.2113190583
 C          1.4502180575       -2.0931113205        0.7629663647
 C          1.3945597551       -1.5644546620       -0.5168855592
 C         -4.5845971564       -0.7032591318       -1.2479550081
 C         -5.7281812773        0.0273336986       -0.6046230967
 C         -6.9976892128       -0.0071831157       -1.1607657872
 C         -8.0634309061        0.6368411906       -0.5583761767
 C         -7.8668494521        1.3300781057        0.6297576993
 C         -6.6134576501        1.3824654158        1.1985760617
 C         -5.5386023113        0.7360212023        0.5853885092
 O         -4.3327722475        0.8414643708        1.2091425584
 H          6.4326344067        2.5135051415        0.7424286416
 H          6.5837477218        0.8173499606        0.2024885982
 H          7.2387288395        2.1373345365       -0.8007339456
 H          3.0965292931        2.2178620805       -2.1191031557
 H          0.8177718257        1.6435762138       -1.3364243978
 H          4.7650534862        1.1313871904        1.6838271570
 H          3.7795755740        0.3715814226        4.1184005417
 H          2.3657498010       -0.4639932189        5.9631958078
 H         -0.0270355592       -0.8808470108        5.6234658402
 H         -1.0943791659       -0.4303627879        3.4477780390
 H         -1.9999037291        1.2006120783        2.1162032500
 H         -2.1031650495       -1.3509513010       -2.1014732340
 H         -1.0006769778        0.1728008147       -3.4087690052
 H          0.1411198104        0.4730907671       -5.5673216661
 H          2.4630659266       -0.2481706463       -5.8796971602
 H          3.7343990682       -1.2536814029       -4.0130146051
 H          4.5828888309       -2.1787002080       -1.5661985882
 H          4.7253933767       -2.9580583581        0.7760254912
 H          2.7369984673       -2.9754081181        2.2141277762
 H          0.5782249614       -2.1231630119        1.3984153665
 H         -4.7588464242       -1.7840025897       -1.1523516364
 H         -4.5626087499       -0.4899654210       -2.3219483271
 H         -7.1469610267       -0.5521055890       -2.0821418473
 H         -9.0427676753        0.5986786813       -1.0092919186
 H         -8.6941018853        1.8325289743        1.1069508882
 H         -6.4329918659        1.9175559420        2.1176415762
  68
  -108.192555134800       7.745449148355046E-002 !
 C          6.4549510742        1.6794907112       -0.1540280223
 O          5.2693406588        1.8737032136       -0.8867820201
 C          4.0804916047        1.5955780946       -0.2966331896
 C          2.9533065576        1.7968848174       -1.1281897447
 C          1.6819636525        1.4988935648       -0.6882960665
 C          1.5348657931        0.9759420221        0.5895593389
 C          2.6473225618        0.8900770674        1.4806578605
 C          3.9314881602        1.1736687989        1.0169507254
 C          2.1298217639        0.4690463641        2.7363485761
 C          2.7109419730        0.2049348935        3.9773232967
 C          1.9064071219       -0.2521430300        5.0052449563
 C          0.5446568347       -0.4631624813        4.8183597321
 C         -0.0607108595       -0.1963080239        3.5898698373
 C          0.7288706179        0.2853912381        2.5683477265
 N          0.3924812766        0.5758174423        1.2444761338
 C         -0.8042874112        0.2435871715        0.6328457752
 C         -2.0120067394        0.6446664667        1.1996890430
 C         -3.2214788075        0.3835440086        0.5878544662
 C         -3.2631958846       -0.3355732468       -0.6409850726
 C         -2.0724215245       -0.7448176964       -1.1987346934
 C         -0.8363741611       -0.4962986650       -0.6055367998
 N          0.3204703960       -0.9876017984       -1.1911963698
 C          0.7178439894       -0.7363472914       -2.5000116260
 C          0.0204961085       -0.1374236257       -3.5335522396
 C          0.6745289931        0.0449090638       -4.7440946356
 C          1.9967865946       -0.3563695289       -4.9166198576
 C          2.7097443473       -0.9275244891       -3.8803543926
 C          2.0765237334       -1.1143090864       -2.6557850136
 C          2.5141033851       -1.6154924692       -1.3915305004
 C          3.7261080890       -2.1034746947       -0.9172146755
 C          3.7978905667       -2.5448916680        0.3893987613
 C          2.6705213727       -2.5524841982        1.2120043098
 C          1.4543622708       -2.0694174692        0.7620297106
 C          1.3975222704       -1.5400835514       -0.5175105784
 C         -4.5788582136       -0.6723960208       -1.2726058316
 C         -5.7326187930        0.0210546208       -0.6069350536
 C         -7.0079123530       -0.0460789187       -1.1470655556
 C         -8.0824465034        0.5693629719       -0.5309104270
 C         -7.8887650651        1.2675424383        0.6547611553
 C         -6.6304228055        1.3506547263        1.2087065616
 C         -5.5470221782        0.7314874578        0.5824874369
 O         -4.3380033650        0.8639928424        1.1948021501
 H          6.5528747568        0.6407567806        0.1768533263
 H          7.2676005216        1.9214261191       -0.8369509197
 H          6.5026273840        2.3432564172        0.7150997671
 H          3.1207942831        2.1846011985       -2.1185872158
 H          0.8298203319        1.6688574096       -1.3278389183
 H          4.7727517078        1.0567464646        1.6796858874
 H          3.7708954079        0.3448502965        4.1234813226
 H          2.3432469733       -0.4615465677        5.9708973107
 H         -0.0558861340       -0.8408692870        5.6312740531
 H         -1.1150410704       -0.3802805927        3.4546130389
 H         -2.0083702413        1.2279679730        2.1063817105
 H         -2.0963276763       -1.3277690804       -2.1076348781
 H         -0.9972822108        0.1987999476       -3.4090195273
 H          0.1481391648        0.5102984231       -5.5636340902
 H          2.4721761263       -0.2047531232       -5.8745109706
 H          3.7420090822       -1.2145520024       -4.0088654843
 H          4.5903681399       -2.1369622393       -1.5632673608
 H          4.7345255763       -2.9152465497        0.7797315420
 H          2.7444932166       -2.9441036593        2.2149017899
 H          0.5820381788       -2.1034002289        1.3968673628
 H         -4.7394894767       -1.7578326780       -1.2200745763
 H         -4.5580406395       -0.4170587314       -2.3379172761
 H         -7.1539062666       -0.5931817268       -2.0677076759
 H         -9.0660495079        0.5055871747       -0.9694810830
 H         -8.7227331790        1.7478276563        1.1430083298
 H         -6.4526585317        1.8888132796        2.1264890069
