107
 energy: -173.980189239666 gnorm: 0.000048533111 xtb: 6.7.1 (edcfbbe)
C           11.99523764230658        3.28624848137184       -1.95366891953097
C           11.88216751394445        1.90816621522063       -2.03972360206859
C           10.72038231714123        1.27705462138359       -1.63332844505812
C            9.66394912047696        2.02768749686825       -1.12663644001653
N            8.48384645119952        1.38879322728725       -0.70675851620852
C            7.20853133673818        1.70154333949552       -1.11754955093200
C            6.80123151567235        2.65755479583616       -2.03783966534711
C            5.44711807536344        2.80831913225281       -2.25890324300098
C            4.51884395740610        2.03715351416605       -1.56331560843055
C            4.92033615631407        1.06648660968161       -0.66769376360771
C            6.28081004125387        0.85494976149374       -0.46071501398537
C            7.05704214643173       -0.03000124182118        0.36734490023936
C            8.40969986361016        0.36562485072207        0.21265257581639
C            9.45882126411214       -0.16421978401561        0.96497341301667
C            9.17612445376935       -1.12981049060933        1.90243381859671
C            7.86778231966271       -1.59490488407619        2.03773840618207
C            7.29903971465787       -2.59076870587150        2.90108943680607
C            7.83154618432047       -3.42227559878626        3.87846411632724
C            6.99306557142853       -4.31383682284886        4.51783135540168
C            5.64397637257772       -4.39471305387417        4.18105805852868
C            5.09324345882193       -3.57876689348652        3.20973177985695
C            5.92547160798308       -2.66310241842776        2.58425675282562
N            5.64194282028404       -1.75150049452727        1.57665592158593
C            4.46172859510931       -1.78838115354867        0.82704871094759
C            3.22633430443313       -1.64011732511426        1.45630393384276
C            2.06198580437337       -1.71172632151788        0.72014391254629
C            2.11553897592290       -1.93899925620108       -0.65583908335933
C            0.90448454640293       -2.01777807352191       -1.43473319593739
N            0.80624085374824       -2.24048796911758       -2.71448931324209
N           -0.49954527612787       -2.23436651629513       -3.02195032474940
C           -1.15678194442109       -2.00691143336339       -1.92023765472392
C           -2.58715661868412       -1.90942821665071       -1.76540099834552
C           -3.41473609515103       -2.10250801982793       -2.87372018520709
C           -4.78328343150719       -2.00640986183290       -2.73975834890807
C           -5.34648585458070       -1.71197521480487       -1.49723249475122
N           -6.73472119106439       -1.63979177416344       -1.34672338494841
C           -7.58331832470232       -2.71156169761575       -1.58764430826762
C           -7.33027944380033       -3.91358622811498       -2.23038078150947
C           -8.36352083060132       -4.82864495956540       -2.31840657952248
C           -9.61649280716745       -4.56458057522460       -1.77038126652631
C           -9.86424316288403       -3.38085906840715       -1.10389684082360
C           -8.84143258191410       -2.44579021004234       -1.00506910622060
C           -8.74003779539717       -1.15902357570327       -0.37609201856244
C           -9.65930986500776       -0.41722507478671        0.36635961497482
C           -9.28636957567430        0.79992559035615        0.88728675379931
C           -8.00965803231452        1.28692079687787        0.60383233211149
C           -7.07124394956782        0.59654504510780       -0.20367743729276
C           -5.96073133666065        1.49275925476267       -0.38899803547677
C           -4.79762243212670        1.47044353283138       -1.15420209461078
C           -3.93109625341636        2.54330814748325       -1.09125677568358
C           -4.19988251259630        3.64415074907710       -0.28103716078669
C           -5.36942534534410        3.71879208007189        0.44845299424339
C           -6.25778919096620        2.65537979565953        0.36543832909140
N           -7.48921863090753        2.51143467626793        0.96219851530571
C           -8.12611354627736        3.46566493335251        1.77533744266017
C           -8.29961450440826        4.76891842509368        1.32002905152550
C           -8.92201179879667        5.70412858611252        2.12713739421353
C           -9.38239753705354        5.34638706614562        3.38383406195490
C           -9.21523700520515        4.04742224925241        3.83552000317368
C           -8.58508872713228        3.10817009449446        3.03936696249417
C           -7.43110541993760       -0.68841199087852       -0.62363690095685
C           -4.51901038276158       -1.52169438638179       -0.38969808947456
C           -3.15081447444940       -1.61881415746960       -0.52191135113540
O           -0.31630773649534       -1.85864089799742       -0.86727858477363
C            3.35305577041869       -2.08953438956783       -1.28609022813517
C            4.51495113898297       -2.01454312506103       -0.55035573853873
C            6.81141466703807       -1.09071939032921        1.24601509526178
C            9.78012689994771        3.41116363894089       -1.03558880885104
C           10.94216641005090        4.03454890482736       -1.45331431283240
H           12.90244330913119        3.77579689696752       -2.27485503194406
H           12.69924343490714        1.32106087839462       -2.43239002180518
H           10.62132483237727        0.20449028843653       -1.71259414144322
H            7.52256007516113        3.26558575427394       -2.56264479022790
H            5.10168502932683        3.54539782946095       -2.96894702109336
H            3.46379479222714        2.20002427508437       -1.72971272362018
H            4.18060855002551        0.49777604558705       -0.13035346259086
H           10.46392263739850        0.20441082086847        0.83120998955999
H            9.95750223807067       -1.53378635202177        2.52731918462351
H            8.88091263664912       -3.37213898968530        4.12760830519608
H            7.38684336459955       -4.96676173585514        5.28307514416673
H            5.01421555531503       -5.11260007850601        4.68606830685807
H            4.05062599901186       -3.66626489841259        2.94453360518306
H            3.18895290948132       -1.44527162672705        2.51739272970122
H            1.10493588870088       -1.58555191681114        1.20390128871867
H           -2.96094736201604       -2.31725299772166       -3.82817983939281
H           -5.42510042078275       -2.13274202576496       -3.59821458135273
H           -6.35905731409171       -4.13896220709735       -2.64351849686721
H           -8.19293676745793       -5.77001352834746       -2.82002884782450
H          -10.39974334254307       -5.30278549988033       -1.86272834782888
H          -10.83041607877256       -3.18399335150465       -0.66397997233161
H          -10.65228516348646       -0.80466840709063        0.53387266014649
H           -9.97381182602714        1.38689804851331        1.47625268271015
H           -4.57338757307745        0.64137636883268       -1.80413049787007
H           -3.02655109297838        2.52827376657953       -1.68220579811835
H           -3.49132117719560        4.45838945767623       -0.23734236797133
H           -5.58927672567380        4.57965166703372        1.06168566167326
H           -7.95616326703793        5.03768584855433        0.33201529022665
H           -9.05466967154823        6.71448506847893        1.76918182624796
H           -9.87115751668097        6.07820135640236        4.00936895892122
H           -9.57027486096372        3.76483086506822        4.81566553215606
H           -8.43839986807192        2.09811429029390        3.39255036615444
H           -4.96033966984504       -1.29661773270364        0.56918038906643
H           -2.51075595267619       -1.47298459458501        0.33486961055342
H            3.37539790424038       -2.26770949801827       -2.34916243397835
H            5.47438988587054       -2.12838733726345       -1.03097569396278
H            8.96366134136447        3.98802913533921       -0.62707051740950
H           11.02741401010625        5.10878075514670       -1.38011641523847
