107
 energy: -173.899048141684 gnorm: 0.000083228675 xtb: 6.7.1 (edcfbbe)
C           12.00179655116777        3.10919720540537       -2.65673446281920
C           11.88474599185531        1.74025456301124       -2.47829817663950
C           10.73275602046419        1.20466959011556       -1.93145499710806
C            9.69060874823230        2.04480101273422       -1.55080739019473
N            8.51895087935728        1.50076151684563       -0.99423741713753
C            7.23661999387165        1.73579519957868       -1.42627601830366
C            6.80449763854519        2.52479556422470       -2.48550097605564
C            5.44620558957487        2.63469145014353       -2.69663412152314
C            4.53507300572099        1.98726401659638       -1.86132010850348
C            4.95792419881088        1.17895340120935       -0.82702149500429
C            6.32488818105174        1.00799041674299       -0.61717593590715
C            7.12016480771512        0.27648020631643        0.32887962567533
C            8.46775338778502        0.64749646234664        0.08675198096274
C            9.53125288563241        0.26692864528234        0.90449981512704
C            9.27146855347048       -0.52411060040594        2.00544979575311
C            7.97505604774922       -0.96868928498873        2.23836740470035
C            7.42716713519414       -1.81031781852777        3.26685249314747
C            7.97496574639360       -2.44710507256963        4.37087338289050
C            7.15046948081498       -3.23176653332435        5.15840560485539
C            5.80616769757727       -3.39996507643666        4.84181809198666
C            5.24068275459160       -2.77723012810342        3.74126558610311
C            6.05503560132429       -1.96321791498587        2.97029751875535
N            5.75315109131026       -1.24550518780143        1.82014523493851
C            4.55521422814576       -1.39409479634765        1.11582102874458
C            3.32264405955870       -1.16676589638211        1.74738323469128
C            2.15080825709835       -1.35291387762200        1.06484853418287
C            2.16144888975907       -1.79626057673807       -0.28175986944903
C            0.96734059669442       -1.99263675188304       -0.99338445379499
N            0.84608716265943       -2.38542980530747       -2.26230984208620
N           -0.42726271654907       -2.44027229441511       -2.55617476645725
C           -1.12344061200962       -2.08436673451820       -1.47528665520463
C           -2.52029481089458       -2.00509413105136       -1.36089605255748
C           -3.34475313934099       -2.30362198742302       -2.47556349710193
C           -4.70593637867797       -2.21934775508781       -2.37640516836007
C           -5.30850615251634       -1.81773502629556       -1.17152417267330
N           -6.69960954688233       -1.75526397208070       -1.05590274134361
C           -7.53566160131458       -2.84394081322885       -1.26697485331317
C           -7.24250464613921       -4.09333159016753       -1.79012793633702
C           -8.27245540342848       -5.01574381727801       -1.87397077016061
C           -9.55678245172400       -4.71037119432466       -1.43447202979757
C           -9.84489127902134       -3.47582960260784       -0.87894430904271
C           -8.82881963052020       -2.53554744488676       -0.79059895122083
C           -8.76061273717034       -1.20129392435282       -0.25982778276009
C           -9.71473219540069       -0.41022865081335        0.36997403017443
C           -9.36742618216735        0.84956850566251        0.81432403618517
C           -8.07834454156385        1.31731103754677        0.56169441198346
C           -7.09565464369749        0.57079287318947       -0.13771655058841
C           -5.98598138256429        1.45912084225606       -0.34311946071472
C           -4.78447680731035        1.38466986600385       -1.04541452585922
C           -3.93151513585530        2.46835515280173       -1.02986295043874
C           -4.24846176213064        3.63300829878412       -0.32967761300962
C           -5.45099606444382        3.75649034527067        0.33404618408270
C           -6.32753012782123        2.67884197103495        0.29813064613969
N           -7.58364130594358        2.57232738827780        0.84308356620296
C           -8.26458512646650        3.58008402475147        1.55000488318345
C           -8.42224682867693        4.84335504703299        0.98891839910985
C           -9.08577753579135        5.83143342505978        1.69394479627563
C           -9.60133997028094        5.56571512988501        2.95215270375666
C           -9.45048327940473        4.30560133290773        3.50796452189792
C           -8.78124324383553        3.31357278161686        2.81431330832639
C           -7.43043676013924       -0.74947531322578       -0.47237497928743
C           -4.50162469634678       -1.52114192761276       -0.05995338512758
C           -3.14045247598297       -1.61942111244350       -0.14552834430795
O           -0.27558685259762       -1.78296570877885       -0.42639666062017
C            3.41300720066560       -2.03163178275404       -0.90611253718974
C            4.57827859338406       -1.82639422900597       -0.22333596267706
C            6.89582279235318       -0.62369349905405        1.38055268925586
C            9.81115814626976        3.42009379567229       -1.72337624334264
C           10.96347533124483        3.94551183948944       -2.28001919400616
H           12.90075283150569        3.52343784314963       -3.08775888175173
H           12.69062209340011        1.08463600739918       -2.77315778740078
H           10.62839124233187        0.13699355137972       -1.80726081942390
H            7.51092651861693        3.03565807789217       -3.12162596515447
H            5.08010262136959        3.24073331050970       -3.51205272026314
H            3.47631205570175        2.11658667401082       -2.03184099501345
H            4.23337826532786        0.69957643732768       -0.19132487947352
H           10.53061699449897        0.61439720908680        0.69492168788493
H           10.06689195349465       -0.80323676020037        2.67829897152521
H            9.02241571121660       -2.33562304251916        4.60605210068387
H            7.55571321036315       -3.73075445183309        6.02611757268869
H            5.18993608444703       -4.03322559873472        5.46273790659583
H            4.20251876008535       -2.93185687346592        3.49102973962679
H            3.30943977190025       -0.80629980160734        2.76578286024416
H            1.20042325773577       -1.15601339092031        1.53840526893480
H           -2.86425949994070       -2.58616472043368       -3.39883476457343
H           -5.32936007047317       -2.42171442978819       -3.23486802645424
H           -6.24499131661956       -4.34720486477687       -2.11358512462273
H           -8.07110408693170       -5.99340606604074       -2.28598405880561
H          -10.33533416617867       -5.45395463522053       -1.51863529888591
H          -10.83655346849551       -3.24894271782106       -0.51829625560771
H          -10.71586484723089       -0.78454151123638        0.51458440864932
H          -10.08590861416900        1.47789940301377        1.31661271783450
H           -4.52039261056835        0.50391506716590       -1.60558859523778
H           -2.99690221157598        2.41226518517179       -1.56885338524376
H           -3.54648400489856        4.45368132081495       -0.32009307932781
H           -5.70558784291839        4.66178922078585        0.86365754918842
H           -8.03499573983071        5.03898518024666        0.00005137439043
H           -9.20628131083132        6.81072440261138        1.25499092445852
H          -10.12041312234284        6.33900053936484        3.49813485052139
H           -9.84895467415771        4.09510533184056        4.48935768692423
H           -8.64591141660800        2.33426719506007        3.24909994552882
H           -4.97278837369059       -1.22934603492934        0.86716555214195
H           -2.51799209846485       -1.40767133515167        0.71078238338613
H            3.41252816910734       -2.37858707387708       -1.92699860700659
H            5.53120579587622       -2.00971953663521       -0.69712461411155
H            9.00733030675918        4.06919396793186       -1.40948930889819
H           11.05299964392282        5.01353251248780       -2.41272232140415
