  107
       -173.91093806
 C         11.9425014401        3.0891827295       -2.6389990036
 C         11.8400447072        1.7233373761       -2.4332509087
 C         10.6917842223        1.1858306480       -1.8817258729
 C          9.6374743666        2.0201997493       -1.5228527837
 N          8.4696069553        1.4772379070       -0.9655489749
 C          7.1862695910        1.7091977761       -1.4059260146
 C          6.7612433051        2.4803867435       -2.4783413466
 C          5.4032233935        2.5888449421       -2.6990349944
 C          4.4895032033        1.9618507872       -1.8559588789
 C          4.9079539051        1.1698038026       -0.8061122969
 C          6.2725746724        0.9949588537       -0.5921690421
 C          7.0664018950        0.2702916145        0.3644637730
 C          8.4143310959        0.6343387437        0.1226099142
 C          9.4747595157        0.2499312509        0.9439835113
 C          9.2091353604       -0.5359978321        2.0409616343
 C          7.9064638663       -0.9783752960        2.2703043764
 C          7.3526328297       -1.8199531754        3.2926723550
 C          7.8978044547       -2.4680267141        4.3933473301
 C          7.0727207337       -3.2514335051        5.1752538093
 C          5.7254506794       -3.4084413099        4.8604226072
 C          5.1614313374       -2.7738415805        3.7691718287
 C          5.9790408654       -1.9613948453        2.9993765532
 N          5.6810370441       -1.2334147844        1.8576055837
 C          4.5036647531       -1.3952908393        1.1240431597
 C          3.2641652804       -1.1714211800        1.7206772858
 C          2.1057675372       -1.3487291779        0.9933237465
 C          2.1709749638       -1.7569044794       -0.3390443684
 C          0.9688119295       -1.9409991894       -1.1127237545
 N          0.8876013059       -2.3162261334       -2.3578090173
 N         -0.4108180017       -2.3621799601       -2.6768443599
 C         -1.0843196710       -2.0128194499       -1.6178605825
 C         -2.5167944289       -1.9236192809       -1.4867560930
 C         -3.3286728754       -2.2475110968       -2.5751610719
 C         -4.7000286021       -2.1750829355       -2.4591674037
 C         -5.2802400176       -1.7747415541       -1.2551797474
 N         -6.6693627285       -1.7318325638       -1.1162575559
 C         -7.4834333885       -2.8456745484       -1.2618156207
 C         -7.1911986216       -4.0907386026       -1.7959967908
 C         -8.1940135105       -5.0426309231       -1.7992256075
 C         -9.4546636583       -4.7712818243       -1.2738831384
 C         -9.7407350424       -3.5423657737       -0.7137003874
 C         -8.7490984767       -2.5701366753       -0.7008112000
 C         -8.6870671046       -1.2326467978       -0.1830356318
 C         -9.6257984857       -0.4588580578        0.4989403422
 C         -9.2860646948        0.8061435128        0.9190015908
 C         -8.0233300292        1.3032639278        0.5948510537
 C         -7.0684110114        0.5770520988       -0.1589700313
 C         -5.9818602173        1.4834457368       -0.4193174265
 C         -4.8195661018        1.4293157125       -1.1839944913
 C         -3.9799265471        2.5245863709       -1.2055492531
 C         -4.2735201528        3.6766322597       -0.4804027087
 C         -5.4435752244        3.7794220689        0.2444250558
 C         -6.3065471289        2.6927141186        0.2437582722
 N         -7.5338200824        2.5650974603        0.8540349816
 C         -8.1899801277        3.5633512676        1.5906017407
 C         -8.3635566668        4.8329371928        1.0480322208
 C         -9.0000559777        5.8159385809        1.7830835231
 C         -9.4763796575        5.5398480003        3.0540277634
 C         -9.3116897397        4.2742444734        3.5919079652
 C         -8.6669720435        3.2878763256        2.8685474136
 C         -7.3930849800       -0.7460927867       -0.4729001654
 C         -4.4674766178       -1.4473671223       -0.1691982916
 C         -3.0968993581       -1.5198391630       -0.2836245036
 O         -0.2587880276       -1.7297245529       -0.5813345115
 C          3.4124593777       -1.9880153687       -0.9351018116
 C          4.5676746344       -1.8093835250       -0.2084731934
 C          6.8398196022       -0.6250617115        1.4142189829
 C          9.7448041825        3.3930629708       -1.7224737492
 C         10.8931685054        3.9204720121       -2.2837559520
 H         12.8383737452        3.5050311035       -3.0743297147
 H         12.6550891704        1.0713567317       -2.7103020067
 H         10.5987785916        0.1197612246       -1.7359126724
 H          7.4717721741        2.9796956574       -3.1195520499
 H          5.0439730254        3.1826119733       -3.5261607965
 H          3.4321060909        2.0955148625       -2.0290569569
 H          4.1786327423        0.7165032072       -0.1573453806
 H         10.4759515524        0.5935886879        0.7352975180
 H          9.9996632273       -0.8196742617        2.7179640331
 H          8.9463356973       -2.3615928673        4.6266214790
 H          7.4755581550       -3.7601535500        6.0382537016
 H          5.1078397154       -4.0422062363        5.4793208933
 H          4.1205360867       -2.9203274389        3.5239007516
 H          3.2193315161       -0.8323415415        2.7446187730
 H          1.1446818752       -1.1627975882        1.4487563325
 H         -2.8598280116       -2.5459814758       -3.4989668857
 H         -5.3326836615       -2.4030877469       -3.3033094085
 H         -6.2121941654       -4.3208347154       -2.1877206768
 H         -7.9926101494       -6.0186080908       -2.2150737740
 H        -10.2127499126       -5.5397877413       -1.2976792276
 H        -10.7120705224       -3.3382836351       -0.2893747786
 H        -10.6071892847       -0.8590440141        0.7001586355
 H         -9.9897385567        1.4198823779        1.4595479173
 H         -4.5778952111        0.5604045689       -1.7719652576
 H         -3.0766187115        2.4870721396       -1.7962304041
 H         -3.5848653298        4.5081299237       -0.5000943602
 H         -5.6815983434        4.6776783111        0.7938904218
 H         -8.0097326535        5.0365175603        0.0483287677
 H         -9.1316920631        6.7996395008        1.3576148673
 H         -9.9758877358        6.3088759408        3.6232998621
 H         -9.6802014791        4.0551188320        4.5830165373
 H         -8.5195286055        2.3046442554        3.2904019437
 H         -4.9243176275       -1.1376528884        0.7580810774
 H         -2.4668935222       -1.2702542445        0.5562664803
 H          3.4404624851       -2.3073371727       -1.9639525875
 H          5.5320033963       -1.9826439708       -0.6600697362
 H          8.9320704128        4.0386399067       -1.4246046467
 H         10.9714464338        4.9865275450       -2.4369589118
