107
 energy: -173.899072490679 gnorm: 0.000047932751 xtb: 6.7.1 (edcfbbe)
C           11.95999619805061        2.98996263390768       -2.81333693347578
C           11.84420520773630        1.62485781437927       -2.60693538096332
C           10.70074712083721        1.10156269564606       -2.03094766023689
C            9.66609709959137        1.95041277364191       -1.64928558376533
N            8.50266491402405        1.41966354574657       -1.06342313056696
C            7.21409526805653        1.65260411519538       -1.47803795567586
C            6.76746925240795        2.42051083684968       -2.54670024306238
C            5.40622128197951        2.53366423434044       -2.73608162930557
C            4.50650959742395        1.91050925397949       -1.87046071449779
C            4.94325818917303        1.12269241130475       -0.82618805737583
C            6.31281248731659        0.94811203551041       -0.63737020538249
C            7.12082335505765        0.23247134899936        0.30983692474798
C            8.46599255077155        0.59005163698034        0.03647026965397
C            9.54113699761188        0.21874409837614        0.84321125220554
C            9.29573372527568       -0.54763317715383        1.96483237265903
C            8.00077873942484       -0.97837279196052        2.22999735572612
C            7.46435831771690       -1.79452645301907        3.28487374663056
C            8.02648055991258       -2.41264538967242        4.39226240793219
C            7.20994934097943       -3.17416723207798        5.21024493124001
C            5.85890827366738       -3.33754837984356        4.92108289908942
C            5.27910537634929       -2.73387115854163        3.81733362020898
C            6.08625758516009       -1.94386169936556        3.01460386953042
N            5.77024534103205       -1.24944671174800        1.85401150397812
C            4.56631693162363       -1.41151159871288        1.16283377106277
C            3.33805550686897       -1.16447707176576        1.79512409312565
C            2.16209053519112       -1.35674937202829        1.12112153926405
C            2.16421660234610       -1.82645427366923       -0.21653817601817
C            0.96698853904702       -2.02564908940394       -0.92207160414258
N            0.84121406198641       -2.44432874610626       -2.18230636933606
N           -0.43263006005485       -2.49263652562540       -2.47468381794146
C           -1.12478272792012       -2.10616701455230       -1.40169679512347
C           -2.52087166559913       -2.01146149456721       -1.28967691150801
C           -3.34750495074491       -2.33286024912460       -2.39639083775900
C           -4.70809357549027       -2.23752130862069       -2.29923798190497
C           -5.30785704220685       -1.80071259217551       -1.10523307051931
N           -6.69869078251274       -1.73017186912449       -0.99060820421100
C           -7.53772781067698       -2.82204164652783       -1.17144556149286
C           -7.24827331433645       -4.08616508381465       -1.66018983969840
C           -8.28091205989601       -5.00754613365755       -1.71875071077097
C           -9.56421032562420       -4.68678384888050       -1.28731286303610
C           -9.84857769316930       -3.43673766780667       -0.76555785582655
C           -8.82985534983534       -2.49728258407920       -0.70327326166179
C           -8.75807587608199       -1.14896664293279       -0.20995832289994
C           -9.71096953403283       -0.33736324575233        0.39502372530454
C           -9.36158149819266        0.93481260741864        0.80085461172437
C           -8.07138634588374        1.39201385297583        0.53513283849493
C           -7.08954192351967        0.62241687162875       -0.14013407703582
C           -5.97805314730043        1.50190329159533       -0.37176398685630
C           -4.77612855520011        1.40351456778930       -1.07032652262853
C           -3.92155232022703        2.48590209165665       -1.08828892536080
C           -4.23681954106543        3.67210284595674       -0.42440635688135
C           -5.43957832576531        3.81828540090026        0.23424103346728
C           -6.31791414389616        2.74152159771781        0.23110993861728
N           -7.57458861993651        2.65420525089984        0.77794245625639
C           -8.25572246625982        3.68568951505450        1.44960777280806
C           -8.41245872823719        4.92899235668133        0.84536025700846
C           -9.07682721784288        5.94068272473770        1.51521368956038
C           -9.59424279458095        5.71815805547324        2.78101901568691
C           -9.44400917140869        4.47791534656313        3.38000244594333
C           -8.77392666732132        3.46263847609441        2.72165132558766
C           -7.42680941419149       -0.70662327106287       -0.43533458018697
C           -4.49868800465328       -1.47838630114850       -0.00250210385411
C           -3.13820577344901       -1.58836367545583       -0.08535881685441
O           -0.27347631299298       -1.79085341204510       -0.35957610567248
C            3.41149846421963       -2.08530476752929       -0.84016035066995
C            4.58075322867532       -1.87341855107392       -0.16659365945666
C            6.90962790909401       -0.64432386252988        1.38344908865019
C            9.78547435180310        3.32199126745548       -1.85009430569944
C           10.92899304284374        3.83489950951718       -2.43570123273828
H           12.85210609305522        3.39458150708894       -3.26714849114201
H           12.64426303941508        0.96251975464719       -2.90262627813086
H           10.59703472455327        0.03660849918027       -1.88485348969508
H            7.46515822897160        2.91311319043743       -3.20643865972976
H            5.02895035087880        3.12377290066048       -3.55806204609223
H            3.44559133991200        2.04255804064426       -2.02491043055779
H            4.22763422652206        0.66209714042214       -0.16686162314290
H           10.53912220081745        0.55415807638267        0.60893541066620
H           10.10125007926990       -0.81847151645602        2.62901491396880
H            9.07879192822876       -2.30495532900851        4.60660353452020
H            7.62668145023195       -3.65857675877016        6.08077988617673
H            5.24869986685294       -3.95201058216259        5.56633412449562
H            4.23536760054839       -2.88469239705569        3.58900668845911
H            3.33129679965752       -0.78330823562473        2.80603247365478
H            1.21496852502127       -1.14424175460486        1.59450152609898
H           -2.86909100753688       -2.64258563912028       -3.31198407081424
H           -5.33308515233216       -2.45860848848191       -3.15193512039765
H           -6.25171855321195       -4.35168693675258       -1.97727694685454
H           -8.08251566587355       -5.99640433547408       -2.10463293482617
H          -10.34495126578359       -5.43009380015611       -1.35111853418315
H          -10.83941975673308       -3.19715032357485       -0.41088308487049
H          -10.71299582657726       -0.70510503778176        0.54997462071560
H          -10.07917915862159        1.57966318780443        1.28307678098353
H           -4.51324977269599        0.50502799933806       -1.60213918440578
H           -2.98674726066922        2.41176801510783       -1.62473346242388
H           -3.53346622466195        4.49149546577390       -0.43990641650346
H           -5.69308223519261        4.73997175388675        0.73535705028649
H           -8.02369873506702        5.09070457423921       -0.14901952189279
H           -9.19657052138515        6.90431898487746        1.04267989210004
H          -10.11412182310649        6.50964110711821        3.29945922690699
H           -9.84384018682644        4.30115719423732        4.36747371155114
H           -8.63916404684807        2.49887944846471        3.19013660834650
H           -4.96758397260245       -1.15749340692838        0.91612192937139
H           -2.51409700586141       -1.35757946943247        0.76482229964110
H            3.40438926809844       -2.45484406570706       -1.85303710270733
H            5.53043632361511       -2.07380351067829       -0.64003017649828
H            8.98768485969956        3.97815936923161       -1.53549607688095
H           11.01752090566424        4.90004209471898       -2.59033405286202
