107
 energy: -173.980154696553 gnorm: 0.000044395120 xtb: 6.7.1 (edcfbbe)
C           11.99255122761131        3.08177125516317       -2.63906041272889
C           11.86993106011939        1.71497492248517       -2.44894384054484
C           10.71410570444350        1.18812849281618       -1.90178609994978
C            9.67332922451981        2.03420065944937       -1.53078587239399
N            8.49760867406223        1.50000708141299       -0.97496043109564
C            7.21672464739904        1.73767773756418       -1.41862987569538
C            6.79637284953988        2.51588397153772       -2.48844226133982
C            5.43911034919673        2.63019621172235       -2.71239625708565
C            4.52040529532522        1.99845008676944       -1.87753700301177
C            4.93434333584801        1.19962359644608       -0.83067853916694
C            6.29770751309411        1.02365889111350       -0.60972254798219
C            7.08496177717636        0.29676974324866        0.35091922182366
C            8.43525652618594        0.65695580613943        0.11296332159384
C            9.49230676483783        0.26846815436662        0.93716035627926
C            9.22048867612287       -0.51625904571533        2.03342485624583
C            7.91472386280951       -0.95190037028782        2.26098599283148
C            7.35625478427952       -1.78701625946132        3.28655682767378
C            7.89809286008361       -2.43244694096260        4.39111547718162
C            7.06851740000087       -3.20576755875362        5.17886136796120
C            5.71943895888707       -3.35442866634074        4.86626375967093
C            5.15927755492022       -2.72286338269984        3.77080146849394
C            5.98165845242149       -1.92082010390293        2.99468691857161
N            5.68651492317509       -1.19487222813822        1.84897794454534
C            4.50760650151644       -1.36853275008970        1.11732860237667
C            3.26858354522499       -1.13504058604175        1.71270583018337
C            2.10770677606223       -1.33911095937582        0.99591306113049
C            2.16836264360309       -1.78286320396578       -0.32588290840133
C            0.96228092014216       -1.99343974021560       -1.08784671088820
N            0.87640753307861       -2.37964552190111       -2.32907842856222
N           -0.42721363791885       -2.44129782111410       -2.63900433885322
C           -1.09582098479997       -2.09051423618600       -1.57720807287654
C           -2.52896779922517       -2.00393423500935       -1.44372239953271
C           -3.33995712001254       -2.29452072326949       -2.54307310899524
C           -4.71093377326420       -2.20438125281176       -2.43368634291249
C           -5.29378793694892       -1.82083398999593       -1.22486468978359
N           -6.68458307322100       -1.75253119754770       -1.09985761621957
C           -7.51875918606279       -2.84739502754638       -1.27935011058284
C           -7.24203306925225       -4.09140045867553       -1.82530648838594
C           -8.26669224456896       -5.01909087571667       -1.87062184149975
C           -9.53435504722632       -4.72646542955976       -1.37314949806072
C           -9.80572288836601       -3.49970181182403       -0.80044001023190
C           -8.79219529270670       -2.55090749209618       -0.74755514650816
C           -8.71614304000532       -1.21927682248940       -0.21643268912539
C           -9.66130934392997       -0.43270372669212        0.44248713330511
C           -9.31349440736519        0.82550151029140        0.87534663557129
C           -8.03408296984768        1.30240316030370        0.58756504404131
C           -7.06764711115230        0.56204238492375       -0.13883730533911
C           -5.96077253884359        1.45422492830593       -0.36289538410379
C           -4.77513806149953        1.38630396798092       -1.08999392224205
C           -3.91968226326420        2.46983579433507       -1.08412684979694
C           -4.22182660993518        3.62698054252082       -0.36986419583644
C           -5.41308408147956        3.74450650454736        0.31758033242550
C           -6.28903492620285        2.66797161390911        0.29166153762526
N           -7.53528980309369        2.55669163649878        0.86390916198255
C           -8.20335619056332        3.56286085999556        1.58396913569653
C           -8.37393957026567        4.82616021919618        1.02646305881598
C           -9.02668187596389        5.81327535781716        1.74267407722726
C           -9.52054229177627        5.54679442830110        3.00930245733839
C           -9.35662133233060        4.28723966245061        3.56245764632854
C           -8.69640783956907        3.29696735763137        2.85780968440802
C           -7.40543329489400       -0.75526539933729       -0.46812808479592
C           -4.48305625777246       -1.53712543602353       -0.12491911294501
C           -3.11203771808151       -1.62611312977605       -0.23310204306210
O           -0.26511804159299       -1.79165180515348       -0.54864125788657
C            3.40962768139522       -2.01875243793582       -0.92174288614428
C            4.56764241997546       -1.81399192736193       -0.20540005277383
C            6.85070376591505       -0.59571379950358        1.40236996998087
C            9.80048883102235        3.40751558160912       -1.71455984517688
C           10.95587961924457        3.92448295228183       -2.27258606083701
H           12.89433267330277        3.48929755599569       -3.07087459119834
H           12.67478342396135        1.05405453163274       -2.73526035246443
H           10.60649763151295        0.12192578174697       -1.76734406710343
H            7.50966179340094        3.01815350007281       -3.12421725480099
H            5.08357097306822        3.23106537313048       -3.53659284496453
H            3.46320173426680        2.13372898366673       -2.05459147380821
H            4.20211602858579        0.73707064797891       -0.19084986652405
H           10.49584557158074        0.60611850045371        0.72984014288293
H           10.00884530288180       -0.80331334005918        2.71192289220317
H            8.94776662293608       -2.33220891072471        4.62317356920690
H            7.46897482273283       -3.71180385642196        6.04514989193846
H            5.09727418389846       -3.97967582864269        5.49000197555315
H            4.11685670611751       -2.86299409170286        3.52861497859586
H            3.22460697341001       -0.77026049274860        2.72769205057911
H            1.14779960278036       -1.14696251274243        1.45144226169681
H           -2.87129616807192       -2.57735489476326       -3.47226015116146
H           -5.33983971308325       -2.40398900314893       -3.28773204977524
H           -6.25954495548730       -4.33858485189646       -2.19724688473588
H           -8.07782511755689       -5.99280363092514       -2.29851033764028
H          -10.31020178427346       -5.47596270675937       -1.42976129551817
H          -10.78332042258938       -3.27933097701264       -0.39857894231153
H          -10.65458827401914       -0.81743672179252        0.61439539265948
H          -10.02138998868578        1.44918191230684        1.39859886899699
H           -4.52514102650849        0.51330609317008       -1.66895898146832
H           -2.99771891553173        2.41906832895082       -1.64548652482599
H           -3.52171867147729        4.44960958040829       -0.36844029627519
H           -5.65818644540697        4.64708191297355        0.85677771343920
H           -8.00411006596107        5.02282971469253        0.03099250284811
H           -9.15677223658275        6.79238182258172        1.30565644619342
H          -10.03279732448505        6.31881366772880        3.56365272167212
H           -9.73832896939389        4.07587137789145        4.55047479354449
H           -8.55251030568561        2.31772084887914        3.29014340875972
H           -4.93924931859788       -1.24505301570244        0.80855748053012
H           -2.48480474211756       -1.40692771045948        0.61752242306971
H            3.43799635192430       -2.36405260915772       -1.94265995347542
H            5.52983198297614       -1.99462829623951       -0.65928101067597
H            8.99773672032251        4.06224569016502       -1.40920868675793
H           11.04934835537259        4.99119615509345       -2.41418540673295
