  70
       -110.34132939
 O         -3.2040239062        4.0633432663       -0.8291809129
 C         -2.6611322655        3.3161282060       -0.0541071300
 C         -1.6090036909        2.3562048352       -0.3943076693
 C         -1.1953615736        2.2163049741       -1.6663519225
 C         -0.1733805174        1.2372619763       -2.1043713639
 C          0.4922219148        0.4124228968       -0.9798926023
 C          0.5639987761       -1.0321891617       -1.4128501041
 C          1.5536839430       -1.4181448972       -2.3117642282
 C          1.6502504634       -2.7204075299       -2.7625177211
 C          0.7362940596       -3.6693938320       -2.3346717560
 C         -0.2790620217       -3.2967034601       -1.4756361671
 C         -0.3734899537       -1.9872542324       -1.0131598678
 N         -1.4568409331       -1.6276531394       -0.1604999492
 C         -1.4254063646       -2.0333861770        1.1716522602
 C         -0.4211746147       -2.8924442824        1.6217902585
 C         -0.3604069025       -3.3069618288        2.9409371174
 C         -1.3085331891       -2.8817224761        3.8515038393
 C         -2.3013262209       -2.0153369837        3.4289601196
 C         -2.3536023581       -1.5817199456        2.1144593561
 S         -3.5979721625       -0.3795039352        1.7367064287
 C         -3.5561587824       -0.3689901008       -0.0319608724
 C         -4.5834612401        0.3044699349       -0.6710303671
 C         -4.6377213113        0.3637105260       -2.0517243295
 C         -3.6751804739       -0.2985505889       -2.7890624054
 C         -2.6541985137       -0.9813404260       -2.1521808924
 C         -2.5486111727       -1.0026443143       -0.7611355599
 P          2.2684884589        1.0786472295       -0.8047583054
 O          2.7595548263        1.7094569642       -2.0373788841
 C          2.1405369064        2.2761098089        0.5625246159
 C          1.7169259496        3.5513187649        0.2114745049
 C          1.5513668012        4.5189904113        1.1844716138
 C          1.8195371517        4.2153851748        2.5094577838
 C          2.2586551837        2.9484901527        2.8581238783
 C          2.4171578856        1.9748140231        1.8881247455
 C          3.3415774395       -0.2716718959       -0.2146907012
 C          2.9656222220       -1.2487403486        0.6980393684
 C          3.8712715372       -2.2251684541        1.0706439336
 C          5.1519091921       -2.2298859424        0.5413133860
 C          5.5303030784       -1.2544582578       -0.3660865153
 C          4.6258963903       -0.2784204297       -0.7429662269
 C         -0.1249575997        0.5993121931        0.3680258222
 C         -1.0438532421        1.5209126894        0.6467277519
 H         -2.9432370485        3.3045281908        1.0179180761
 H         -1.6458056585        2.8249701679       -2.4384977282
 H         -0.6471042761        0.5679624602       -2.8325709752
 H          0.6123392962        1.7667807514       -2.6602978755
 H          2.2522919234       -0.6751047777       -2.6687395758
 H          2.4348763086       -2.9932958013       -3.4512656323
 H          0.8024207021       -4.6891947429       -2.6817536341
 H         -1.0210045672       -4.0146576478       -1.1566065857
 H          0.3311677876       -3.2381477396        0.9296405332
 H          0.4353435866       -3.9683782959        3.2489786525
 H         -1.2742755929       -3.2068569179        4.8792081810
 H         -3.0433577997       -1.6467956123        4.1207579745
 H         -5.3342990772        0.7925645289       -0.0686400939
 H         -5.4283773602        0.9114870889       -2.5382958286
 H         -3.7116896396       -0.2911494969       -3.8678841075
 H         -1.9229340723       -1.5103475112       -2.7447283475
 H          1.5282962353        3.7729887961       -0.8290784634
 H          1.2146432917        5.5080022843        0.9115436499
 H          1.6920196200        4.9691302310        3.2723831739
 H          2.4783694746        2.7179888044        3.8903741733
 H          2.7638709748        0.9880504322        2.1599789551
 H          1.9691109988       -1.2616715240        1.1126605424
 H          3.5753670041       -2.9866317881        1.7775152620
 H          5.8534987162       -2.9962145130        0.8359355220
 H          6.5273958208       -1.2566422992       -0.7808441780
 H          4.8946351549        0.4856847782       -1.4583267616
 H          0.2777114653       -0.0138267445        1.1620512724
 H         -1.4083475817        1.6515567203        1.6549212159
