45
 energy: -74.907532328342 gnorm: 0.000049684660 xtb: 6.7.1 (edcfbbe)
C           -2.95392801761573        2.01372188122914       -1.66265759630610
C           -3.62844096010576        1.69041138356503       -0.49844956473054
C           -3.40727785288780        0.47077907789300        0.11710060479916
C           -2.50151781248274       -0.43642912560374       -0.42217663713663
C           -2.28457080408161       -1.73950491823292        0.22381193507214
C           -3.36612812236627       -2.57521771753162        0.48744771301015
C           -3.15107962075517       -3.82786229864619        1.03487642292396
C           -1.84175881635866       -4.21312798068772        1.28353047857135
N           -0.80699935458122       -3.42730962873315        1.06429946675425
C           -1.00654256521691       -2.21190773415920        0.56783268943274
C            0.19594020594448       -1.37426968752110        0.41930747641669
C            1.43420953182464       -1.96287560764940        0.17548520607658
C            2.54586587702046       -1.13773077471567        0.02112075562626
C            3.85077738448475       -1.71523133295975       -0.24658833940405
C            5.09196495713193       -1.10951834708556       -0.35839739513919
N            5.93493305845093       -2.13296810921120       -0.61306340619202
N            5.26479890567684       -3.28380304808524       -0.65721088049405
N            4.03656479881648       -3.04662272678340       -0.44153108832693
C            2.36572106121356        0.23916747207939        0.12031095557925
C            1.08955648436233        0.73021260240695        0.38633111866959
C            0.84948742499391        2.17574186861679        0.49538793011536
C           -0.42268834382218        2.65877037817559        0.80484065383391
C           -0.61447643786281        4.02540211374404        0.87540870796044
C            0.46444152200688        4.86569852177450        0.64279698560061
C            1.69060819363591        4.28667144502274        0.35041144429823
N            1.88489618103150        2.98438336875256        0.27572850323732
N            0.03467661185393       -0.06230384524513        0.53696246330961
C           -1.84047490348607       -0.11064123197446       -1.60374639011464
C           -2.06281317908231        1.10758238543156       -2.21504155104707
H           -3.12262552934080        2.96740074833379       -2.14092581152758
H           -4.32830594957901        2.39111484034884       -0.06580272614697
H           -3.92337406815066        0.22532295549339        1.03470070746184
H           -4.36618650108019       -2.24374475595159        0.24361566739351
H           -3.97407730947882       -4.49177065499387        1.24980211055269
H           -1.60764841171397       -5.19122728179723        1.68313153506750
H            1.52912397094408       -3.03330928182645        0.10394499304837
H            5.41653289861922       -0.09466644173993       -0.27658624086708
H            6.93234393897855       -2.10389550300485       -0.75884921157665
H            3.17629700010598        0.93813416547409       -0.00134318969010
H           -1.22066814255515        1.95581303185817        0.97461988080953
H           -1.58870451095481        4.43140975741970        1.10791916348103
H            0.35986582294141        5.93881214623886        0.68722527199129
H            2.56544358032670        4.89742384370959        0.16373361123469
H           -1.15299513639068       -0.82078010153826       -2.04075512675001
H           -1.54076806041460        1.35274414811186       -3.12855829689127
