45
 energy: -74.907551084242 gnorm: 0.000200106681 xtb: 6.7.1 (edcfbbe)
C           -3.94187350240485        0.82528247992160       -1.62341147587871
C           -4.40312369643918        0.18810832932350       -0.48488960740365
C           -3.68492191547523       -0.85986502344363        0.06406318035729
C           -2.49177500645471       -1.27679882630659       -0.51643827785956
C           -1.74747194364166       -2.40836310854509        0.05651826287669
C           -2.38710842467050       -3.62933324824616        0.25270289651761
C           -1.67250573555288       -4.71334577130144        0.73108560161758
C           -0.31906295265209       -4.53987776489288        0.98171613047254
N            0.29843619229710       -3.38662921119711        0.82646949973294
C           -0.38586938078949       -2.33270263615995        0.39547286663556
C            0.37078604464600       -1.07145386121963        0.31709889450814
C            1.74655051224708       -1.09688556229462        0.10063278887387
C            2.43223921853762        0.11278024523512        0.02071065871733
C            3.86558223026670        0.12428772141206       -0.21028913385934
C            4.75874348323163        1.18319638749675       -0.24208735499332
N            5.94998242613688        0.60027701935605       -0.49532341307515
N            5.80335466018777       -0.71888925807737       -0.61353121906452
N            4.57863716827439       -1.00752876055388       -0.44612066464046
C            1.70737586069892        1.29315298521848        0.15941591372351
C            0.33570435919771        1.21365853814185        0.38921687236293
C           -0.47080821917311        2.43349497467967        0.53328052016722
C           -1.83571594648843        2.34997846099387        0.81136141093700
C           -2.56496293793390        3.51941887214355        0.91257035589068
C           -1.91310554059820        4.73193043604892        0.74193877854857
C           -0.55135611862965        4.70853394803209        0.47845021763833
N            0.15398116534432        3.59916619277776        0.37410130225619
N           -0.31089751231370        0.05656026741761        0.47245908344595
C           -2.04337632117089       -0.64129654621625       -1.67142297988558
C           -2.76206755908571        0.40462490183026       -2.21632605533136
H           -4.49977887776918        1.64585277306275       -2.05017912924962
H           -5.32481844631844        0.50858106904233       -0.02039165802389
H           -4.03848325204845       -1.34754775074269        0.96169229354824
H           -3.43676771756115       -3.72416227962310        0.01045960687883
H           -2.14802218292220       -5.66839667197035        0.89232000868587
H            0.29994017761587       -5.35673827878521        1.32912634327265
H            2.26815570250639       -2.03329179248210       -0.00401277803259
H            4.64329337166102        2.23695265788194       -0.10717089982695
H            6.85424345629299        1.03553005862874       -0.59368083494461
H            2.16757739553423        2.26496875799212        0.09485867427800
H           -2.28501168677003        1.37905619919375        0.93412089342080
H           -3.62495677109966        3.48848513617890        1.12110234287307
H           -2.44354142271997        5.66911054349169        0.81149491960875
H            0.00605664193516        5.62701081564644        0.34081119999259
H           -1.12897973561711       -0.97536813798003       -2.14044853947556
H           -2.40297807596242        0.89444034319774       -3.10977160553023
