45
 energy: -74.855393916373 gnorm: 0.000074353736 xtb: 6.7.1 (edcfbbe)
C           -3.62193241957175        1.32703281108101       -1.15581200789443
C           -4.40873164017962        0.41190831779261       -0.43244768033561
C           -3.86597320637574       -0.79233371347952        0.00234177560245
C           -2.55904920901637       -1.13571612891882       -0.26316561841146
C           -1.93451066126876       -2.37778881180806        0.09067820656553
C           -2.62996994404372       -3.54159189244551        0.42261401120008
C           -1.93465767125550       -4.71491266280052        0.65089177278457
C           -0.54910879698052       -4.69955410269606        0.50863013277873
N            0.14206421884856       -3.61539721986336        0.23623578113616
C           -0.50881731071021       -2.45988222611609        0.05772048611597
C            0.28254762567161       -1.27123559059673       -0.09295369782162
C            1.65821280392294       -1.28734849461930       -0.02732686988068
C            2.39442800058071       -0.10075778388509       -0.08734337394069
C            3.83123753716584       -0.08850876847553       -0.08281758201289
C            4.74102117553599       -1.13903589273808       -0.11197405551546
N            5.94767333775217       -0.52878512258336       -0.09794040997672
N            5.79872014431478        0.79386064395173       -0.06299856415493
N            4.55710310451179        1.06431374332630       -0.05496241887088
C            1.66949568289576        1.11138038068109       -0.05358715161092
C            0.30218547743169        1.11848645127003       -0.08725800955847
C           -0.43250369964775        2.33882295106505        0.22048568693691
C           -1.59814760031678        2.29004052469443        0.99787589526017
C           -2.23627287735528        3.47426885336965        1.30933588131545
C           -1.70426121010952        4.66850192266936        0.84263842457556
C           -0.53185616593435        4.61319739386746        0.10172831648035
N            0.08880236161433        3.49156484247283       -0.20133078996924
N           -0.39669194062576       -0.06359736738068       -0.25422162904177
C           -1.65797892726418       -0.18773658062565       -1.01028169244385
C           -2.31039508371747        1.08923037329683       -1.40329833314063
H           -4.07030072540916        2.24861497018844       -1.49659715272393
H           -5.43801665962876        0.64793520305680       -0.21433165434404
H           -4.48692738991578       -1.46942100603611        0.57037837051956
H           -3.70915391600771       -3.53333356792264        0.46549738777523
H           -2.45080517527026       -5.62761475625335        0.90333460332213
H            0.03248359975345       -5.60508713342398        0.62601294158761
H            2.13403332826796       -2.24713117628040        0.08851021129678
H            4.62629733321663       -2.20074094920308       -0.14223219145854
H            6.86316640453446       -0.95082043439484       -0.11022878149992
H            2.19744432209273        2.04361780703259        0.05939958258319
H           -1.96299117685532        1.34608252242509        1.37262665490858
H           -3.13374321936518        3.46873120292568        1.91137115714572
H           -2.17712501883198        5.61366382251427        1.05826323553523
H           -0.06416971988412        5.51518327685947       -0.27191962075563
H           -1.35855391597237       -0.69239214529276       -1.95619320134358
H           -1.71062513658428        1.78742810189419       -1.96694240011299
