45
 energy: -74.855061919506 gnorm: 0.000074276763 xtb: 6.7.1 (edcfbbe)
C           -3.69948924195282        1.07987630871598       -1.25937479449960
C           -4.43058676544050        0.14046591293586       -0.50882307572235
C           -3.81290581233476       -1.00812801070962       -0.02679072707752
C           -2.48396257134142       -1.27384973561148       -0.27253580867751
C           -1.78127555871292       -2.45836187771080        0.12794988277765
C           -2.40223036626531       -3.65245059261347        0.50168260979820
C           -1.63438078555564       -4.76900352068538        0.77294435363872
C           -0.25153526802707       -4.67035719389520        0.62957453021882
N            0.36707905377580       -3.55377168497393        0.32030014127418
C           -0.35361468223369       -2.45069774330894        0.10074643353187
C            0.36368297007670       -1.21892489754900       -0.08955463513345
C            1.73474085471472       -1.14239658936155       -0.02811189918958
C            2.39177238647501        0.09110718271046       -0.12803911883127
C            3.82679029508975        0.16154049807212       -0.13209830449702
C            4.67402075560183        1.25975431955844       -0.22304377195968
N            5.91439421341199        0.72173029220229       -0.18567230927690
N            5.84209211803209       -0.60372967540159       -0.08090313143655
N            4.61862682310438       -0.94445701988525       -0.04963814286942
C            1.58891918655762        1.24964893873496       -0.12714934460819
C            0.22144388113573        1.16560642656307       -0.15757168220190
C           -0.58412557356588        2.34686385482305        0.11193186771988
C           -1.76606995557767        2.25189960882990        0.86100655848675
C           -2.47570820028446        3.40511001630051        1.12843200464530
C           -1.99813695599120        4.61723168216963        0.64730192491568
C           -0.80317037705864        4.61116538839474       -0.05787201233907
N           -0.11210144528174        3.51999957184073       -0.31857815803232
N           -0.39625295291282       -0.06388480784697       -0.28896762897988
C           -1.64102919473037       -0.29547643569488       -1.04773728934658
C           -2.37280825255647        0.92165478618058       -1.48844435378445
H           -4.20492929923579        1.95714552542292       -1.63563048592919
H           -5.47526438308508        0.31510381722430       -0.30662981097122
H           -4.39245695072318       -1.70407549563885        0.56177410081119
H           -3.47998578202811       -3.71153592262337        0.54241655624350
H           -2.09228480155751       -5.70301980474158        1.05793388598940
H            0.38738802144436       -5.53131492163488        0.77675626654712
H            2.30050256991894       -2.04878881966115        0.10926168342902
H            4.49884579126972        2.31018029202704       -0.30900367193358
H            6.80376347508356        1.19468926703530       -0.22656762109548
H            2.02481995797057        2.23092662990632       -0.03486684401513
H           -2.08588901023992        1.29817572384872        1.25116528649169
H           -3.38679017494870        3.36347776753538        1.70800810928455
H           -2.52835579204189        5.53914716345834        0.82672193209374
H           -0.37506631931860        5.53049665642639       -0.43769919067293
H           -1.30180006799574       -0.81187403768355       -1.97356301948464
H           -1.81535383856048        1.63915109019200       -2.07123679462749
