106
 energy: -162.456318372126 gnorm: 0.000053796784 xtb: 6.7.1 (edcfbbe)
C           -5.57793508493332       -5.21787549884984       -0.81471600853282
C           -4.65485117508486       -4.65789160492331       -1.68221220200789
C           -4.24810367356152       -3.34703529577838       -1.51151352238670
C           -4.76636890733363       -2.57404240626285       -0.47582631562235
C           -4.31203936474603       -1.18308288886566       -0.29096064290286
C           -2.95740142298138       -0.92514647584080       -0.23329904004895
C           -2.44832017638449        0.36810937076872       -0.04528596642625
C           -1.01856218948346        0.56890428573721       -0.07584245164778
C           -0.14479136670847       -0.39936365927245        0.47560950286412
C            1.20944658237378       -0.25375656058007        0.44865098642303
C            1.81402805270785        0.87960190906240       -0.17172731008765
C            3.18921568550451        1.11706224957804       -0.27146161705522
N            3.68359363155476        2.34938631927355       -0.51300597222492
C            4.99949374214452        2.26048885826875       -0.40907040647247
C            5.94914761602459        3.32048226829949       -0.50453324020354
C            5.52871437040361        4.64199917940513       -0.67359204841380
C            6.44936216946602        5.66632486430786       -0.71910843355499
C            7.80024842060179        5.36933288396696       -0.58521723795630
C            8.22600573119502        4.06515419794130       -0.42477421884593
C            7.32097723396172        2.99668959421702       -0.39095646717431
C            7.73748917821699        1.60774447448103       -0.27086347831213
C            9.08621744686455        1.24933678235743       -0.28731355229356
C            9.50231715957589       -0.06518071959746       -0.22253777741319
C            8.55922860193189       -1.09074097746264       -0.15938218740347
C            7.22401708006498       -0.78731357081148       -0.13237937908972
C            6.76995547876254        0.55163888412006       -0.16592371431532
C            5.41118821982598        0.91361869222187       -0.15537034062259
N            4.24357556747429        0.19508348381584       -0.06496460782704
C            4.07619271293615       -1.18495467121973        0.09349889570513
C            4.57429200003743       -1.84150940223243        1.22227086777381
C            4.38789284067108       -3.19832711081096        1.37053810301450
C            3.69585158910194       -3.94014672342872        0.40753378595064
C            3.49624992683251       -5.37950785595542        0.57259214718530
C            4.48171069083709       -6.20471211767639        1.12121527593107
C            4.23836373412785       -7.55969751973676        1.25080629114721
C            3.01418883785655       -8.05671484677330        0.82656597185263
N            2.06509744971467       -7.28919568451544        0.31149895625445
C            2.30018819482932       -5.99741665985252        0.19203886642526
C            3.19424045128403       -3.27169288213030       -0.71333293832907
C            3.37985289339736       -1.91647731831283       -0.87279121106884
C            0.92848254192043        1.86850759801152       -0.70261665877267
C           -0.42103207460457        1.71221324346786       -0.66492619312447
C           -3.37036349482408        1.42838607181052        0.13210460286628
C           -2.89415745651265        2.78698034176898        0.45057289595073
C           -2.06211039774651        2.99125518859319        1.55002792461732
C           -1.62733863449409        4.26228056066103        1.87490518872252
C           -2.01013543158612        5.34756544258387        1.10369692949987
C           -2.83189920087550        5.15397495928866        0.00508497398331
C           -3.27483408269802        3.88515140600338       -0.31782541721558
C           -4.74060801013014        1.17454609167646        0.07430981661159
C           -5.70589102089968        2.28350876502575        0.25037316980959
C           -5.74871324188665        3.00604790955378        1.43826018422839
C           -6.65745513220321        4.03576428521544        1.59955035220228
C           -7.53082245689777        4.36030035391403        0.57483548074288
C           -7.49326419888100        3.64721823950560       -0.61180908143552
C           -6.58974289700287        2.61281456980017       -0.77216005416972
C           -5.22568644236138       -0.12210013479492       -0.14607191364038
C           -6.67375157794678       -0.37553563572663       -0.23228809145827
C           -7.53212451265168       -0.00789309542977        0.80153383395489
C           -8.88877889391839       -0.25463166247801        0.70838583914854
C           -9.41072246146313       -0.86587618460783       -0.42002408612216
C           -8.56544331924942       -1.23434915612301       -1.45399567834484
C           -7.20743364521904       -0.99641676241312       -1.35985777826805
C           -5.68716982492236       -3.14864236882520        0.39634837941358
C           -6.08866613784651       -4.46063262008520        0.22688258080532
H           -5.89615350379474       -6.24155661758445       -0.94837880221308
H           -4.25055783991882       -5.24478542750658       -2.49468770650234
H           -3.53606189986610       -2.90787557292920       -2.19636180054320
H           -2.26750424279682       -1.74551019718845       -0.36522045819439
H           -0.56811525547154       -1.25014806768379        0.99005149175050
H            1.82603034519688       -0.97795054747602        0.95581433715548
H            4.46894223432765        4.82795246738548       -0.75753350090276
H            6.12618324527630        6.68806593177359       -0.84966801319039
H            8.52962985933585        6.16611211528920       -0.60659889936686
H            9.28417268953307        3.88771754846394       -0.31966555974609
H            9.84210020031473        2.01370137477711       -0.36728137827973
H           10.55633085275415       -0.29842388426533       -0.23684813703110
H            8.87979126671162       -2.12186865832879       -0.13838926627282
H            6.50077090576045       -1.58510670233561       -0.10803053204471
H            5.09434688636750       -1.27288541989611        1.97982893145764
H            4.75561851862923       -3.68815014994443        2.25975307846522
H            5.43336723558701       -5.78860517719112        1.41926063853212
H            4.98437299568611       -8.22047087588968        1.66526071905253
H            2.77584127843058       -9.10984223053644        0.89811289897805
H            1.48242602328701       -5.41439325978368       -0.21265025480441
H            2.67819558632248       -3.83003198298520       -1.47971783069613
H            2.99753220542384       -1.40838285141932       -1.74583346043084
H            1.37471925595062        2.73031792459766       -1.17280932212118
H           -1.05260323177629        2.45095896882268       -1.13263776159155
H           -1.76888829676828        2.14662895156196        2.15748542880639
H           -0.98705494163993        4.40690999843600        2.73325397539230
H           -1.66883818078620        6.34054543539864        1.35738924729160
H           -3.12924369322697        5.99555349295424       -0.60389951732488
H           -3.90472098644269        3.73702858105022       -1.18288479769077
H           -5.07125558651290        2.75144017982724        2.24102978802828
H           -6.68324636872700        4.58752545880562        2.52836520799120
H           -8.23870931514959        5.16672449163805        0.70064704153610
H           -8.17122376170816        3.89645141936274       -1.41562500110941
H           -6.55969402100462        2.05932266744770       -1.70007202535450
H           -7.12809119925417        0.45749363803430        1.68885628355857
H           -9.54180927172450        0.03073845914043        1.52075850218686
H          -10.47181222230054       -1.05516724686110       -0.49295818335967
H           -8.96628329424126       -1.71013178778214       -2.33761262243819
H           -6.55165581438022       -1.27856546832949       -2.17113850885226
H           -6.07955541722989       -2.56624170208244        1.21700497451954
H           -6.80264779885869       -4.89484219236561        0.91202364395049
