106
 energy: -162.545289720802 gnorm: 0.000051740672 xtb: 6.7.1 (edcfbbe)
C           -6.34401104444222        1.97586239944420       -5.09826189023450
C           -5.43060200322552        2.87517334991191       -4.57382490566277
C           -4.80681680475902        2.60783931721793       -3.36861169756915
C           -5.09677637041266        1.44198826945751       -2.66514228503256
C           -4.41945060602394        1.16642636506685       -1.38376285170741
C           -3.03326396397413        1.22124723997453       -1.33003088901426
C           -2.34007711443700        0.95467550729971       -0.15701961464593
C           -0.86918161108088        1.05309617871447       -0.15586434268855
C           -0.12331206498113        0.34943514381543       -1.09756710210703
C            1.25533306706603        0.41917908872636       -1.10490385858204
C            1.92358521946358        1.20927785391708       -0.17161089250996
C            3.37571896651225        1.30541172885212       -0.13424289464222
N            4.02773646142813        2.42465230194891        0.05700396536592
C            5.34868286953851        2.09899731454150        0.01119201718441
C            6.46610873439048        2.97218644128985        0.12957387803896
C            6.29639852842706        4.35012212314418        0.30611648525644
C            7.38711224141060        5.17927042923278        0.39043197865637
C            8.66764677907820        4.63682858784081        0.29596715877048
C            8.84661096084629        3.28347347235072        0.12761776055022
C            7.75734107314665        2.40164801917495        0.04510535918279
C            7.91497717689538        0.96391195557518       -0.09625999243504
C            9.18133077993723        0.36065201109590       -0.10817429408255
C            9.34047972893017       -1.00233102651959       -0.19559253100101
C            8.22550295871382       -1.83242559019989       -0.25928814106952
C            6.96773753154100       -1.28138930240356       -0.25943782265275
C            6.78354957615197        0.10787753220817       -0.20008753720385
C            5.50279223814393        0.73012451335072       -0.19948473273111
N            4.22226877954887        0.23180069821411       -0.30426797713634
C            3.78973356258200       -1.09256006221649       -0.51814405105342
C            3.00546036129126       -1.71993086973971        0.44331792481075
C            2.53265791516190       -2.99764277065069        0.21851906196331
C            2.83739561015909       -3.67341908367008       -0.96163783333353
C            2.33140934478625       -5.03209073908144       -1.19415791073206
C            1.02783987761182       -5.39477932849609       -0.85606708820981
C            0.60103424944175       -6.68882483894677       -1.09730730420660
C            1.49394612069778       -7.58248728914034       -1.67041309617336
N            2.73610570579316       -7.25662598749461       -1.99036735331011
C            3.13903161197550       -6.02155953488613       -1.75842591563988
C            3.63102651928205       -3.03737720448336       -1.91564758704622
C            4.09770244962699       -1.75538650612941       -1.70321307072469
C            1.17589853505342        1.95317229118062        0.74102051947863
C           -0.20074397992527        1.86929906827086        0.75365425782569
C           -3.05189639285018        0.61739982773220        0.99894376897029
C           -2.33525131632090        0.31979944029337        2.25630049233488
C           -1.38980090849719       -0.70009330062022        2.30479051550857
C           -0.73225818120149       -0.98924048650138        3.48637081896440
C           -1.00131977232518       -0.25761995393832        4.63102534576941
C           -1.93285763704753        0.76618772328023        4.58850298381290
C           -2.59857621763313        1.05074993810479        3.41063365687671
C           -4.44832510075056        0.55327215283167        0.95580385364469
C           -5.20243515514086        0.18260544730412        2.17328274076723
C           -4.98326578827268       -1.04565719151532        2.78877549536597
C           -5.68974917374406       -1.39737314937781        3.92403837647731
C           -6.62090952044012       -0.52463679905683        4.46177064652993
C           -6.84356811773533        0.70099990356023        3.85661574084400
C           -6.14135361870990        1.05210619020765        2.71828685439517
C           -5.13640450261023        0.83051120215880       -0.22976142117223
C           -6.61277063743920        0.77747084469416       -0.25997819004278
C           -7.29008391129635       -0.39094746549986        0.07473172419399
C           -8.67162240073566       -0.43443938088579        0.04068667355287
C           -9.39489422941622        0.68976679771380       -0.32154846643955
C           -8.72877382649758        1.85749399528260       -0.65442875597124
C           -7.34704757910733        1.90086120309943       -0.62734907187700
C           -6.00813072942153        0.53913353464157       -3.20528931156567
C           -6.62627918473648        0.80548944663477       -4.41301676093141
H           -6.83218528833418        2.18480180413955       -6.03913317571145
H           -5.20367401934948        3.78842450527584       -5.10544112252302
H           -4.10104542562479        3.31539266464682       -2.95608403431489
H           -2.48024905124162        1.47989792387876       -2.22176950000676
H           -0.63097989098131       -0.27105173214362       -1.82228515048159
H            1.81053158739125       -0.12831090108484       -1.85190884126808
H            5.28799354715689        4.73070121503011        0.36612560585723
H            7.25857158941340        6.24326268733986        0.52530218239649
H            9.52962608123347        5.28583047411797        0.35514745637188
H            9.85577231410839        2.90992623994833        0.05739073267402
H           10.06640662091550        0.97187973707275       -0.03808628599967
H           10.33253919272360       -1.42954279760016       -0.20189221197279
H            8.34694894859524       -2.90470252467324       -0.30390350303668
H            6.10622612133319       -1.92889044149305       -0.29063317292983
H            2.77146491830958       -1.19858294431231        1.35953883117033
H            1.93809769016782       -3.48549542391251        0.97568336845263
H            0.35525526032819       -4.66398342096472       -0.43041974989806
H           -0.40337330608826       -6.99748888101639       -0.85197518567076
H            1.20970834624110       -8.60424391026970       -1.88571070136292
H            4.16843433151417       -5.81270811793046       -2.02113337900582
H            3.86178451148624       -3.54129207748646       -2.84208219840450
H            4.70115018077038       -1.25994328041263       -2.45008909688456
H            1.69528810945488        2.58914051254599        1.44167579117969
H           -0.76733961423552        2.44622498701068        1.46911363301793
H           -1.18158959811049       -1.27408733148046        1.41275119191971
H           -0.00939782044838       -1.79175657576211        3.51898269851533
H           -0.48628416795594       -0.48449140600696        5.55326643221649
H           -2.14455317531381        1.34320129298811        5.47719077730203
H           -3.32308476475329        1.85175368932588        3.37941090478395
H           -4.26127094155451       -1.73039090662659        2.36721296479382
H           -5.51278473599258       -2.35585818968702        4.39085391202960
H           -7.17160764879514       -0.79871485960896        5.34993188736181
H           -7.56810619468420        1.38642274646523        4.27247916058155
H           -6.31330559323208        2.01135777252240        2.25119204068580
H           -6.72835061806750       -1.27172155196291        0.35120716054610
H           -9.18575475302385       -1.34934405572774        0.29859370954596
H          -10.47445244211640        0.65579109648131       -0.34523480746865
H           -9.28777270567579        2.73796020842741       -0.93732742280849
H           -6.82903553520354        2.81418270784914       -0.88377987998897
H           -6.22516028254321       -0.37878550956020       -2.67896108554068
H           -7.33204933481121        0.09641028096723       -4.82140995951091
