106
 energy: -162.545200462761 gnorm: 0.000048861804 xtb: 6.7.1 (edcfbbe)
C           -5.99155870515458        3.44570827273416       -4.46455128690873
C           -5.14428667850076        4.11011716240079       -3.59349093523683
C           -4.56985110643940        3.43377161622744       -2.53256390508692
C           -4.84410642127853        2.08529290418215       -2.32132368154968
C           -4.22139917785893        1.37571742384596       -1.18778307368751
C           -2.84456026990659        1.44569634552374       -1.02407531597399
C           -2.20281100912534        0.78714770133795        0.01580151315666
C           -0.74492088818389        0.94172418801512        0.16969840260987
C            0.10754403109733        0.67909689706670       -0.89887386897580
C            1.47383323531247        0.82972572945530       -0.76839476343361
C            2.02077503807196        1.26175219606258        0.43819998099256
C            3.45190897945514        1.45483375508018        0.61963635731514
N            3.96758340391080        2.47320216689851        1.26192025632479
C            5.31731968041850        2.31429049887028        1.19121724465367
C            6.32504043905540        3.18320215229024        1.69582877962315
C            5.99554463645755        4.36838271255874        2.36311073883715
C            6.98241839109519        5.21188119904850        2.80898824079699
C            8.31773417446514        4.88135944356133        2.58415794439611
C            8.65362820072495        3.71587285232743        1.93541880523128
C            7.67431449021067        2.82029984960518        1.47745759282074
C            7.99778041603525        1.56062492891037        0.82906667468665
C            9.32447559877437        1.13124930812756        0.67694710542462
C            9.63919140869178       -0.08186458927247        0.11124439813756
C            8.62747870173377       -0.93688483939655       -0.31509420139166
C            7.31545724763402       -0.55011646426175       -0.19347643377039
C            6.97376845898550        0.69616567506969        0.35192730213205
C            5.63116116844851        1.14759477012446        0.49689962746685
N            4.41891799593914        0.60879089156591        0.12361843768855
C            4.15367480287646       -0.56866523121387       -0.60427621839133
C            3.42780565806264       -1.59486519858760       -0.01028669190097
C            3.13346569654652       -2.73520860784651       -0.73148108163282
C            3.56108377644729       -2.87512336542381       -2.05060652142764
C            3.25532610838497       -4.09533992387726       -2.80753227736035
C            2.01140323781194       -4.71993825266656       -2.72035254582171
C            1.77908160461469       -5.87096418311371       -3.45261172152545
C            2.79963546619090       -6.36123127702841       -4.25417440685992
N            3.98727572597905       -5.78413433062979       -4.34382436442948
C            4.20567894858004       -4.68884406715454       -3.64101056102606
C            4.28795903632750       -1.83882986415209       -2.63612398222133
C            4.57738168497481       -0.69152427052913       -1.92492800656279
C            1.16490440692591        1.56242455325323        1.49786153231885
C           -0.19750836778407        1.39586457455587        1.36758458691837
C           -2.95569707085527        0.02238382703442        0.91336638801161
C           -2.28200461799076       -0.70847450849898        2.00635464170534
C           -1.28191261563910       -1.63192940422453        1.71618403472349
C           -0.65192368650993       -2.32552357218390        2.73281331198756
C           -1.00410604210674       -2.09859144159785        4.05285766909319
C           -1.99252807058736       -1.17551187551844        4.35081045029350
C           -2.63015015152688       -0.48727325590200        3.33506564736251
C           -4.34352218634375       -0.05447842259383        0.75967369640039
C           -5.14364969656912       -0.85796778054937        1.70996872033780
C           -4.91325169557300       -2.22290611916687        1.84810080645718
C           -5.66386062304460       -2.97445514039107        2.73336540250137
C           -6.64887258215871       -2.37103731362779        3.49718904513181
C           -6.88210785115939       -1.01195167212804        3.36870255288766
C           -6.13732972140484       -0.26032603827434        2.47847771791610
C           -4.98099954133154        0.62381860462745       -0.28419697524706
C           -6.45072704325364        0.56143458938008       -0.42319149869251
C           -7.10370793493163       -0.65729211845217       -0.57834984946174
C           -8.47923285420034       -0.70316291570583       -0.71218416174779
C           -9.22087055595447        0.46618196443943       -0.68656373351063
C           -8.57905187692565        1.68349116245013       -0.53025167140608
C           -7.20322344045677        1.73181432010890       -0.40274946465006
C           -5.68839346329756        1.42341090655964       -3.20818485407419
C           -6.25685434562988        2.09982288182115       -4.27161842809416
H           -6.44168316302646        3.97435328213840       -5.29225296239907
H           -4.93097353386488        5.15938770084356       -3.74042393273416
H           -3.91635107032447        3.95642848741786       -1.84795829396497
H           -2.25902774823019        2.03143494008814       -1.71832125932494
H           -0.30594087110946        0.34264311529846       -1.83900451132353
H            2.11303071932293        0.63181982413473       -1.61590071625592
H            4.94940033341628        4.59317924901499        2.50549944652750
H            6.73076154548095        6.12750060635584        3.32390226386961
H            9.09844322516454        5.54711095302679        2.92333664085688
H            9.69970584615790        3.50394514367933        1.78138445605062
H           10.13248930006713        1.75719829279685        1.01932721656790
H           10.67330119513122       -0.37751296943862        0.01165655984317
H            8.87091176161299       -1.90133755766315       -0.73599966135756
H            6.53340029494773       -1.22259269402466       -0.50765809533486
H            3.10190205938886       -1.49073437128361        1.01403423296460
H            2.58654396116098       -3.53669071222009       -0.25876619914221
H            1.23338929900555       -4.29505089390130       -2.10250762119814
H            0.82570221602231       -6.37439728235761       -3.40872356748661
H            2.66815091229549       -7.25301506313793       -4.85298361026652
H            5.19958882726846       -4.26947930032475       -3.73361075372647
H            4.60881596027948       -1.92365731994106       -3.66335752368656
H            5.13386838775699        0.11357615245079       -2.38286103856248
H            1.59000656258675        1.92430420453026        2.42164460442610
H           -0.84912469021361        1.63095827584577        2.19568012412689
H           -1.00852155208996       -1.81222824889289        0.68604484479966
H            0.11555373285017       -3.04861889382528        2.49634456224821
H           -0.50984136831605       -2.63934925555369        4.84693207963134
H           -2.26913650072227       -0.99147247470579        5.37903168485809
H           -3.39679524140102        0.23634136879489        3.57149814522025
H           -4.14789200389610       -2.69652229901553        1.24988258573748
H           -5.47881681733432       -4.03492328520554        2.82838811642251
H           -7.23334110867875       -2.95831086950227        4.19052123615372
H           -7.64836344414695       -0.53543217163531        3.96331695390982
H           -6.31844080308740        0.80080963563719        2.38238987501569
H           -6.52726107531530       -1.57091594274316       -0.60569543985339
H           -8.97419900710321       -1.65579948960596       -0.83638741814526
H          -10.29579199186709        0.42940073373298       -0.78871249693781
H           -9.15232559643751        2.59930139964920       -0.50874210003396
H           -6.70439213055598        2.68232792570721       -0.27643842937381
H           -5.89167303411533        0.37206748678543       -3.06715953759285
H           -6.91064094716705        1.57421633606001       -4.95274358523876
