81
 energy: -130.086261704363 gnorm: 0.000043114631 xtb: 6.7.1 (edcfbbe)
N            1.45930265960749        2.88162309330980       -0.19357374138982
C            2.30242193504917        2.10393322953719       -0.26148771125041
C            3.34108714254753        1.15665520628248       -0.26276905086271
C            4.69880345558331        1.53982200432664       -0.31062972236341
C            5.12699698983287        2.91852275766465       -0.56607166976641
C            4.43973315489776        3.74904344954278       -1.44750783388391
C            4.88267593985337        5.03965541615356       -1.66975525712631
C            6.00934426694459        5.51354339176228       -1.01840320616345
C            6.70580938498619        4.68686900350462       -0.15108212383031
C            6.27296171174881        3.39433099046619        0.06942038690435
N            5.66026970447948        0.65325448180982       -0.10732555059317
C            5.32573929185815       -0.61140015061582        0.12963043463748
C            6.40213561148629       -1.56192898116226        0.40132264368727
C            6.10846028030724       -2.90323212729585        0.64363652291520
C            7.12774490001608       -3.79810158121347        0.90361265329308
C            8.44489720236872       -3.36592307753886        0.92425003722996
C            8.74257179296044       -2.03376576454066        0.68158112050568
C            7.72859766891544       -1.13309777405343        0.42056403276139
N            4.07922539819689       -1.07261332724485        0.12239759282452
C            3.08693216572962       -0.22049324991149       -0.08120164197190
C            1.73514034845673       -0.78091597712281       -0.08439483103593
C            1.44533535495761       -1.84309221930243        0.77219930334733
C            0.18022217489091       -2.38851513696948        0.81133675800926
C           -0.81762410849904       -1.89142255487325       -0.02542769592089
N           -2.09898178189493       -2.44753698870348       -0.00818723107194
C           -2.35819366037510       -3.77944138799221       -0.29454333212995
C           -1.48132729290765       -4.84627856185334       -0.41316212430208
C           -2.01001545521731       -6.08438240665380       -0.72835755139513
C           -3.37571471151522       -6.25981566194982       -0.93471044692521
C           -4.24869550876137       -5.19373432741632       -0.84951519412571
C           -3.74018414752929       -3.94110196910882       -0.53216923271745
C           -4.33496252095301       -2.64205641589060       -0.39659937286760
C           -5.64334521569809       -2.20042175978312       -0.58899072477880
C           -5.93887810535906       -0.86659573408970       -0.42929668030463
C           -4.92930422643468       -0.00334948264457       -0.00314406058875
C           -3.59325174489570       -0.41609511282758        0.23012329003311
C           -2.88830735986361        0.74245926113054        0.71342777417466
C           -1.62485017899159        0.96948427493577        1.25305822369361
C           -1.28444636026813        2.24516846925700        1.65384751464432
C           -2.19028865640439        3.29771165786020        1.56107727695081
C           -3.47138280517790        3.09219538547946        1.09026509354610
C           -3.81139960080265        1.81509725911883        0.66888579249341
N           -5.03441372112715        1.34893980937235        0.23685249318013
C           -6.19727448639212        2.12269104172280        0.10579356942259
C           -7.37051874393280        1.74456260540706        0.75158653003485
C           -8.51159221262089        2.51321773837778        0.61485699671541
C           -8.49015263088623        3.66565450443994       -0.15304323270937
C           -7.32073717062721        4.04787310714415       -0.78914350328693
C           -6.17755831254973        3.28007753590788       -0.66679169611442
C           -3.29322938060137       -1.75181742117629       -0.05254496264516
C           -0.52176077368410       -0.85420661696714       -0.90957016587983
C            0.74021680704287       -0.30000722193503       -0.93384721741490
H            3.57330756579493        3.38259594345978       -1.97734538857293
H            4.34592105690045        5.67706820451735       -2.35629541105639
H            6.34793805797962        6.52434957540386       -1.19128607162276
H            7.58860314892891        5.05204040402569        0.35266351473643
H            6.80434716297148        2.73847737218533        0.74198333742816
H            5.07829825023304       -3.22244472324501        0.61950418334169
H            6.89841610723636       -4.83698885646085        1.09045368075268
H            9.24009076755422       -4.06808566474693        1.12800281963049
H            9.76969481976030       -1.69976707510086        0.69592207793939
H            7.94204438762569       -0.09384270067581        0.22522878846678
H            2.22344021037249       -2.21327960458585        1.42191222066608
H           -0.05252170437035       -3.18158894277989        1.50575837761861
H           -0.41797718524671       -4.72034333669767       -0.27734518849014
H           -1.34775884562546       -6.93261637059479       -0.81994996470535
H           -3.75126150378170       -7.24338983691007       -1.17522902103712
H           -5.30511130429029       -5.32558284347017       -1.02849894141078
H           -6.40958190104734       -2.90204652041181       -0.87997530127990
H           -6.93167026878429       -0.49122858489691       -0.62258551929322
H           -0.92318173808780        0.16398439561627        1.38903017392940
H           -0.29880911747882        2.42995064522819        2.05215019892944
H           -1.89325777274201        4.28373327133599        1.88465870601128
H           -4.19350992712774        3.89463486430733        1.06775240255402
H           -7.37650704394435        0.85789836019585        1.36787158057999
H           -9.41973508320237        2.21529001984970        1.11782660503325
H           -9.38225224065232        4.26513139468344       -0.25425343855626
H           -7.30024021551646        4.94497518194468       -1.39012815842064
H           -5.26784964443316        3.56379392424969       -1.17471860312370
H           -1.29115982944512       -0.48645371439435       -1.57075072664498
H            0.95814308191341        0.49097692612650       -1.63500744959542
