81
 energy: -130.014733525255 gnorm: 0.000071728835 xtb: 6.7.1 (edcfbbe)
N            1.46105545212112        2.94057962667516       -0.47248588785762
C            2.30595184070475        2.14949638256368       -0.44349567801828
C            3.31546658808629        1.20685601954195       -0.35944259194963
C            4.68777541557751        1.54755541934041       -0.35857952149981
C            5.13154404982980        2.91769128514432       -0.66445087037464
C            4.51101589817301        3.68278955960197       -1.64636231975194
C            4.95901883268698        4.96455584869881       -1.90860403252003
C            6.02371270402560        5.49216660518163       -1.19751158957411
C            6.65244485544082        4.72847857464255       -0.22743174150529
C            6.21406856036959        3.44539922100566        0.03621859648460
N            5.61625775430541        0.68317453561903       -0.06427793688188
C            5.32783640667626       -0.61121213861460        0.26069943302446
C            6.37890178502976       -1.52401341870405        0.58847192234126
C            6.09281977395256       -2.85881451936573        0.91078654498422
C            7.11063445964386       -3.73167261361124        1.22407502022078
C            8.43088852715229       -3.30051648869913        1.22480885308617
C            8.72509538365114       -1.98174349776203        0.90575073438200
C            7.71523786903392       -1.09952308317168        0.59048728209936
N            4.06042362004477       -0.98420276449489        0.23888009387788
C            3.06006781901970       -0.20527321456087       -0.07620489967402
C            1.73362032192408       -0.77715776353409       -0.11659176278377
C            1.43912379960937       -1.87720899479734        0.70476483848236
C            0.17940460707219       -2.42792903738842        0.72167541161820
C           -0.81952688826487       -1.90952049501727       -0.10283084184420
N           -2.10909823316770       -2.46354335269066       -0.09765834331260
C           -2.37426177299305       -3.78753313332443       -0.41181201175912
C           -1.49689789610677       -4.84417716715477       -0.59169423554122
C           -2.03280613259809       -6.07894384762463       -0.91568795798066
C           -3.40392888659858       -6.25750279645256       -1.07031224939003
C           -4.28011165601226       -5.19856522452204       -0.92175379117218
C           -3.76457796515738       -3.95212020162538       -0.59387030970388
C           -4.35616333169344       -2.65909655969371       -0.40074407090067
C           -5.66584821657785       -2.21356753210255       -0.54610389498025
C           -5.95279150132594       -0.87834264507760       -0.35883658003179
C           -4.92739066014082       -0.02359720367235        0.04775542968131
C           -3.58754244215587       -0.44073327081364        0.24290647081407
C           -2.86748320673788        0.71337701480150        0.71383764304810
C           -1.58958617539476        0.93657077622941        1.21897113457665
C           -1.23340416429159        2.21413236070767        1.60089452221643
C           -2.13839984361370        3.27165455333262        1.53102590432119
C           -3.43335778573286        3.06968192870501        1.10197036726462
C           -3.78953100321787        1.79034452478508        0.69439281148330
N           -5.02264576398552        1.32822704431426        0.29781810827398
C           -6.18476919838728        2.10665428334282        0.18234795940853
C           -7.34656429984045        1.73807081520232        0.85378747371743
C           -8.48723290094444        2.50971083934850        0.73019562909774
C           -8.47594213095847        3.65317297884994       -0.05137430778772
C           -7.31737576977008        4.02495753395259       -0.71336689368694
C           -6.17398750337127        3.25571012825957       -0.60276227224628
C           -3.29444231747428       -1.77334626059348       -0.06861058883176
C           -0.52309561852063       -0.85185190573658       -0.96298233242731
C            0.73093067527637       -0.28566040885797       -0.96273758185742
H            3.68988390365666        3.27447966243925       -2.21545159783207
H            4.47279927479566        5.55302650077823       -2.67221190201358
H            6.36588795774549        6.49596015050328       -1.40170970597591
H            7.48718061405561        5.13410348657255        0.32512831792415
H            6.69487789035307        2.84272005820492        0.79211389689933
H            5.06314111670665       -3.18403697524506        0.90242595384325
H            6.88185771109271       -4.75896452064202        1.46981814065432
H            9.22558999559672       -3.98908753172054        1.47069507946420
H            9.75248745436464       -1.64652514993979        0.90369333943153
H            7.93157767476820       -0.07252800726946        0.33615756076169
H            2.21341388433379       -2.26393969894243        1.34962276411136
H           -0.05216093623065       -3.24143818701012        1.39325196105123
H           -0.43039309636980       -4.71265087936614       -0.49439105180344
H           -1.37048999268182       -6.92024978282100       -1.05489844095991
H           -3.78456460872886       -7.23657313765910       -1.31983272094631
H           -5.34214852356839       -5.33373592029655       -1.05947933612400
H           -6.44268154412749       -2.90744277282393       -0.82657558033518
H           -6.94925424999270       -0.49797187639205       -0.51975790973754
H           -0.88779904723681        0.12941520652518        1.33749829195966
H           -0.23476123317734        2.39820750148737        1.96438089428421
H           -1.82586365271456        4.25758660108540        1.83858131730917
H           -4.15372595365343        3.87375695025979        1.09682327818571
H           -7.34337184017267        0.85887546827438        1.48072730781168
H           -9.38660532688839        2.22069246828225        1.25325542849105
H           -9.36786009466018        4.25410791742235       -0.14311786353019
H           -7.30538816106162        4.91466043301486       -1.32499785573013
H           -5.27303995500350        3.52975272781134       -1.13097349845132
H           -1.28967779007664       -0.47553571450514       -1.62333320405228
H            0.94266182365843        0.52798932377605       -1.63755813012415
