81
 energy: -130.085642077062 gnorm: 0.000039872359 xtb: 6.7.1 (edcfbbe)
N            2.62850864040439        1.37936039545772        3.12820783456367
C            3.16806780654868        0.86720418896752        2.25258618314094
C            3.79163783976222        0.29331844601438        1.13126235479474
C            5.12840864083331        0.57839839885171        0.78098562100641
C            6.03566057585516        1.32931130853575        1.65361384847714
C            6.98849930559883        2.16486680638621        1.07251547110077
C            7.85813624759701        2.88662352423665        1.86584943121474
C            7.79671936355940        2.77205601862470        3.24566895514271
C            6.86719941254356        1.92664310291279        3.82840642129703
C            5.98870723325782        1.20700869463031        3.04004695370667
N            5.62055752363530        0.18183039001920       -0.38217654773982
C            4.83688314454262       -0.49947450201363       -1.21200103471200
C            5.38819428874401       -0.88166776110269       -2.51028996411341
C            4.60460964192992       -1.58387303854685       -3.42523136806660
C            5.12769966744415       -1.94041840453804       -4.65269333623181
C            6.43225946456602       -1.60234994785500       -4.97821489944848
C            7.21641752501352       -0.90641011336689       -4.07102619506630
C            6.70024525906552       -0.54601525462225       -2.84174602105798
N            3.58969834993995       -0.86948735267465       -0.93533057287103
C            3.06185230946746       -0.50026706753915        0.21960333849377
C            1.68859772288086       -0.93222524795119        0.48989482865968
C            1.29152220538999       -1.34439102361717        1.76005221961645
C           -0.01260424534979       -1.73298825982119        1.99149043197068
C           -0.94362312177486       -1.69826564914351        0.95684648578479
N           -2.27277485025493       -2.07192346855367        1.18173966081046
C           -2.66146887625455       -3.34118391804244        1.57824181036630
C           -1.89407647626211       -4.38864988456349        2.06266662305475
C           -2.54002199716488       -5.57092338018111        2.37276776126597
C           -3.91367934915030       -5.71575693388048        2.19562870574004
C           -4.67722308697422       -4.68423382786102        1.68686377492400
C           -4.05044694802381       -3.48614509800523        1.36988696509323
C           -4.51306168805300       -2.24817045242038        0.80966982907569
C           -5.77444470044268       -1.83677154581956        0.37972237314595
C           -5.93186856994750       -0.58052061950759       -0.15830626275604
C           -4.82929933682215        0.27357215163152       -0.20212529108372
C           -3.55048234009186       -0.07795782255748        0.29482331049045
C           -2.74584716764434        1.11326763843895        0.22919200049644
C           -1.47165104690688        1.46351387246473        0.66790712234662
C           -1.00819657263969        2.74171125769295        0.43153629486206
C           -1.78940154779534        3.68206121968647       -0.23501370175598
C           -3.07690732669799        3.38185068110358       -0.63233415443415
C           -3.55932774724154        2.10835935139317       -0.36636935127634
N           -4.80710099630597        1.58542800471229       -0.62558833096387
C           -5.88683517466588        2.27923950362181       -1.19127695306594
C           -6.28303595205822        3.50621628270394       -0.66764765961501
C           -7.34420473632844        4.18769619441504       -1.23424175551791
C           -8.02307455629917        3.65007644436968       -2.31515842882287
C           -7.63412000103882        2.42584684663048       -2.83309189120631
C           -6.56761013474086        1.74191528301567       -2.27984572391871
C           -3.38833261983688       -1.39764025872771        0.72610399073537
C           -0.54305240967980       -1.31154982254371       -0.32190692884157
C            0.76376045509767       -0.94273945966977       -0.55332947199177
H            7.02312642419193        2.24370091077361       -0.00331588178042
H            8.58669989042515        3.54012215812163        1.40917142409918
H            8.47666045991873        3.33665894771834        3.86623488871041
H            6.82603653208997        1.82522061257691        4.90251780992019
H            5.28293274877227        0.53428668107936        3.50377980057332
H            3.59290346735759       -1.84151819814377       -3.15352251626312
H            4.51928930017469       -2.48446815850226       -5.36023650655208
H            6.83871458005953       -1.88283597202641       -5.93894660092393
H            8.23332839787681       -0.64627199040937       -4.32587248111021
H            7.29726499912844       -0.00809495277464       -2.12202613639778
H            2.00524962728269       -1.37449101683368        2.56974551395321
H           -0.32352188538577       -2.03459132489298        2.98007364200735
H           -0.82601105095790       -4.29294154975460        2.18699402479038
H           -1.96596868545313       -6.40070360296768        2.75796213430353
H           -4.38263754258602       -6.65387492677116        2.45312965342923
H           -5.73937678034899       -4.80277484589429        1.53438354960512
H           -6.61568617809397       -2.50709542863921        0.46339603199735
H           -6.89489778373250       -0.24372898440492       -0.50957629327526
H           -0.85416225743162        0.76705085263394        1.20895415507171
H           -0.02137923499154        3.01625267830037        0.77352072851565
H           -1.38998808066936        4.66704857737106       -0.42605185676779
H           -3.69126625898295        4.11571291132310       -1.13207351455817
H           -5.76517626296113        3.91067111461158        0.18911627921174
H           -7.64793470527126        5.13936052196248       -0.82385201918744
H           -8.85373835487046        4.18333858680780       -2.75221086072232
H           -8.15910127392706        2.00429215670490       -3.67753848483147
H           -6.24886937955603        0.79584134721645       -2.69164048747120
H           -1.26703233400623       -1.29962902433432       -1.12245313303710
H            1.08447357478846       -0.64190597227339       -1.53849662019027
