  34
  -67.0343562800000       0.502648107829856      !
 O         -0.7985689160       -2.3356283570        0.1984703437
 C         -1.4494783397       -1.3048672228        0.0937407605
 C         -2.8898601038       -1.2510219219        0.0328420903
 C         -3.6229593996       -2.4611310085        0.0395459229
 C         -4.9956199088       -2.4288822793       -0.0108408133
 C         -5.6803659779       -1.2153967893       -0.0479504502
 C         -4.9859474349        0.0080738367       -0.0492873805
 C         -5.6404052187        1.2527969977       -0.0922255986
 C         -4.9185830267        2.4468894251       -0.0809953377
 C         -3.5462985419        2.4382258992       -0.0422181702
 C         -2.8507856299        1.2051473401       -0.0033429834
 C         -3.5627751964       -0.0141148206       -0.0079120286
 C         -1.4198871574        1.1990613006        0.0326731320
 O         -0.7084020181        2.2100544797        0.0285090610
 N         -0.7921436985       -0.0549157302        0.0583539619
 C          0.5744130643       -0.0632107470        0.0059825377
 N          1.2729915318       -1.1358291005       -0.1020569286
 C          2.6056525182       -0.9050553514       -0.0706339545
 C          3.6137851966       -1.8643575404       -0.1545233222
 C          4.9269862053       -1.4532557994       -0.1282922104
 C          5.2386494528       -0.0945665154       -0.0251258771
 Cl         6.8934422852        0.3821079190       -0.0014260015
 C          4.2539764475        0.8783167541        0.0514846881
 C          2.9347194664        0.4672009824        0.0409291001
 S          1.4740675965        1.4412636455        0.0821374750
 H         -3.0741837121       -3.3879663822        0.0765545699
 H         -5.5540013051       -3.3529540845       -0.0176813290
 H         -6.7593914258       -1.2026288921       -0.0688850872
 H         -6.7183904699        1.2730858967       -0.1422965631
 H         -5.4501194450        3.3862842626       -0.1068771929
 H         -2.9680001010        3.3477340161       -0.0379996630
 H          3.3479965534       -2.9062056124       -0.2274041245
 H          5.7267401584       -2.1745398895       -0.1847417084
 H          4.5082866115        1.9243032390        0.1097927121
  34
  -67.0343462700000       0.497351892170144      !
 O         -0.8305120001       -2.1682161306       -0.0077955158
 C         -1.4847317303       -1.1192844527       -0.0073943080
 C         -2.9138971460       -1.0459223558        0.0171453430
 C         -3.6773405060       -2.2382079912        0.0451953633
 C         -5.0483733807       -2.1703174359        0.0656466784
 C         -5.7027042592       -0.9379743535        0.0669425090
 C         -4.9794305913        0.2683075527        0.0357129527
 C         -5.6047302019        1.5284573193        0.0249531348
 C         -4.8531271506        2.7019278300       -0.0009865861
 C         -3.4801246256        2.6577750708       -0.0286685143
 C         -2.8156933802        1.4087589201       -0.0136085403
 C         -3.5568046950        0.2111576829        0.0152111435
 C         -1.3738660431        1.3826808481       -0.0540279892
 O         -0.6650290339        2.3763818969       -0.1401787283
 N         -0.7879215431        0.0979283253       -0.0214241264
 C          0.5771834506        0.0294883931        0.0258469159
 N          1.3345854612        1.0602154974        0.1422569381
 C          2.6522982654        0.7573627768        0.0906017447
 C          3.7122435059        1.6590905404        0.1707966356
 C          5.0006184756        1.1776860262        0.1163863896
 C          5.2361105814       -0.1940920300       -0.0096733360
 Cl         6.8617539511       -0.7595682713       -0.0708010980
 C          4.1986755940       -1.1109489324       -0.0811368407
 C          2.9042779082       -0.6288961494       -0.0437446381
 S          1.3916251744       -1.5210883248       -0.0784513869
 H         -3.1508785355       -3.1786564443        0.0458883271
 H         -5.6317937509       -3.0787894037        0.0822164988
 H         -6.7808376206       -0.8981046679        0.0985450274
 H         -6.6828578100        1.5757591942        0.0313444958
 H         -5.3592953217        3.6556749584       -0.0025185375
 H         -2.8801065346        3.5525596651       -0.0559665311
 H          3.5047324866        2.7129011768        0.2602663415
 H          5.8391601749        1.8536504909        0.1672277821
 H          4.3948615237       -2.1681294513       -0.1571191076
