  65
       -105.52439917
 C         -7.0169524144       -1.8998954202        0.4813256820
 C         -6.5489507959       -0.4797003783        0.1116531205
 C         -7.7640928111        0.4313405893       -0.1447482081
 C         -5.7241429720       -0.5558184983       -1.1564430204
 C         -6.2988666410       -1.0402039633       -2.3232866315
 C         -5.5917399063       -1.1226599560       -3.5087021119
 C         -4.2701989948       -0.7080400586       -3.5450204301
 C         -3.6724519178       -0.2252825215       -2.4025826691
 C         -4.3831719122       -0.1480640791       -1.1976618464
 N         -3.7551069147        0.3352719479       -0.0679031617
 C         -2.3875215533        0.7295040714       -0.1512075614
 C         -2.0679757318        2.0666672710       -0.3661004140
 C         -0.7452235373        2.4611651894       -0.4301103039
 C          0.2864316031        1.5336117537       -0.2828355231
 N          1.5706030014        1.8844622122       -0.3241447903
 C          2.5422413575        0.9978156531       -0.1785554995
 C          3.9125867161        1.3988975564       -0.2069002674
 C          4.2193425568        2.7604354890       -0.3850805940
 C          5.5144456076        3.1959677656       -0.4066659539
 C          6.5539356601        2.2604658912       -0.2471654738
 C          7.8958319875        2.6946333518       -0.2604864113
 N          8.9894819813        3.0437613435       -0.2700131571
 C          6.2702765276        0.9145401763       -0.0745716458
 C          4.9530566366        0.4490021646       -0.0510519930
 C          4.6196034620       -0.9463478692        0.1268334686
 C          5.5894577324       -1.9417558853        0.2704106874
 C          5.2355884156       -3.2711852024        0.4409252270
 C          6.2437323275       -4.2473902780        0.5823410794
 N          7.0632644228       -5.0433567613        0.6960374993
 C          3.8809140196       -3.6520997667        0.4739007058
 C          2.9172951542       -2.6931913893        0.3344583362
 C          3.2578374260       -1.3391958966        0.1594351122
 C          2.2121364613       -0.3767754549        0.0157187596
 N          0.9406155343       -0.7416103190        0.0594987279
 C         -0.0479635561        0.1434380907       -0.0724473171
 C         -1.3891678634       -0.2252463514       -0.0089016780
 C         -4.4093874153        0.4559581363        1.1415175530
 C         -3.7177223208        0.9514755295        2.2544862379
 C         -4.3453767944        1.0894194575        3.4720342010
 C         -5.6773373720        0.7316729210        3.6053713911
 C         -6.3604660069        0.2327742581        2.5119234671
 C         -5.7548873207        0.0833218039        1.2719518232
 H         -6.1550506221       -2.5402604100        0.6580805912
 H         -7.6236554024       -1.8850148521        1.3821619373
 H         -7.6077879983       -2.3333829657       -0.3203645399
 H         -8.3937323832        0.4943035204        0.7379002010
 H         -7.4285597785        1.4344888219       -0.4001739073
 H         -8.3663085705        0.0520967644       -0.9650226204
 H         -7.3283867381       -1.3640779892       -2.3133786100
 H         -6.0694217510       -1.5047702598       -4.3971225381
 H         -3.7058702801       -0.7598774028       -4.4633211562
 H         -2.6443803916        0.1000913525       -2.4327542104
 H         -2.8604401085        2.7909197419       -0.4770989833
 H         -0.4829201166        3.4942732178       -0.5922546814
 H          3.3971046329        3.4496449796       -0.5018073997
 H          5.7533034376        4.2399732469       -0.5413411998
 H          7.0990990894        0.2346444407        0.0442973089
 H          6.6397689007       -1.6970205896        0.2502139491
 H          3.6227618489       -4.6917162661        0.6075646296
 H          1.8690587369       -2.9493108136        0.3537634282
 H         -1.6394622555       -1.2615476227        0.1548465740
 H         -2.6796107866        1.2267279456        2.1539868075
 H         -3.7954000624        1.4750131562        4.3165135764
 H         -6.1796601326        0.8369835558        4.5542591078
 H         -7.3954201903       -0.0471796642        2.6346851418
