  58
        -91.74035514
 C          7.8094503561        1.6774175887        0.4558352928
 C          6.7884614581        2.5442383930        0.8181304819
 C          5.4722264380        2.1618979307        0.6851717971
 C          5.1317686225        0.8951933695        0.1847771801
 C          3.7310352121        0.5470262252        0.0677955674
 C          3.2612010599       -0.6607220681       -0.4377231295
 C          1.9081115642       -0.9839529759       -0.4026141460
 C          1.4753795506       -2.3325447930       -0.7419853730
 C          2.0283393081       -2.9995810498       -1.8415751071
 C          1.6188880411       -4.2746120422       -2.1732983586
 C          0.6591482792       -4.9252179246       -1.4125997269
 C          0.1195060225       -4.2869008868       -0.3063273012
 C          0.5228833320       -3.0104736896        0.0274005689
 C          0.9793819661        0.0125058369        0.0489009461
 C         -0.3955425948       -0.0989759251       -0.0474727997
 C         -1.2502510694        0.9282576347        0.4038475550
 N         -2.6426962733        0.7560516953        0.2999604528
 C         -3.2503103336       -0.3409835252        0.8972907521
 C         -2.5489705062       -1.2154228589        1.7266540173
 C         -3.1742722089       -2.3162005470        2.2820711549
 C         -4.5169040852       -2.5550927096        2.0435175969
 C         -5.2448299166       -1.6672416473        1.2690570890
 C         -4.6242919010       -0.5642109949        0.7066246875
 O         -5.4057134363        0.2933639668       -0.0138262083
 C         -4.8034076140        1.3856509306       -0.5713598925
 C         -5.6096659141        2.2439077397       -1.3007366112
 C         -5.0598638096        3.3443315023       -1.9354283386
 C         -3.6956919856        3.5685830152       -1.8574574876
 C         -2.8848300417        2.7198561875       -1.1271338600
 C         -3.4245247346        1.6290796016       -0.4472652937
 C         -0.7071193504        2.0934939135        0.9323978731
 C          0.6599270554        2.2577479764        0.9829123117
 C          1.5414656322        1.2528143969        0.5174642919
 N          2.8361426801        1.4738993927        0.4854306876
 C          6.1748875797        0.0307129473       -0.1710647614
 C          7.4909982310        0.4214009465       -0.0391965401
 H          8.8422902328        1.9756746030        0.5589674596
 H          7.0270979659        3.5252875771        1.2040830172
 H          4.6702414448        2.8319830071        0.9556524035
 H          3.9643778137       -1.4002972619       -0.7858633298
 H          2.7587084778       -2.4928083082       -2.4557985008
 H          2.0469151145       -4.7666625057       -3.0350798852
 H          0.3406194920       -5.9231315142       -1.6747698321
 H         -0.6159799001       -4.7919279909        0.3040061490
 H          0.1276348568       -2.5412942877        0.9161953062
 H         -0.8312632339       -0.9520436707       -0.5468508114
 H         -1.5115026415       -1.0175675720        1.9412224233
 H         -2.6078064294       -2.9837485488        2.9122204813
 H         -5.0047814356       -3.4155356864        2.4730911997
 H         -6.2987440547       -1.8070168718        1.0908964932
 H         -6.6631767619        2.0236647733       -1.3639761299
 H         -5.6933111216        4.0102067395       -2.4993551115
 H         -3.2533567582        4.4073753854       -2.3714923112
 H         -1.8214982137        2.8918482513       -1.0899428786
 H         -1.3626290504        2.8610578021        1.3175863198
 H          1.0909199626        3.1440428513        1.4189385679
 H          5.9604809128       -0.9581181917       -0.5475959126
 H          8.2810253473       -0.2608724206       -0.3201051009
