  80
       -122.28079856
 C          0.7207474528        3.9847586004        0.6050609002
 C          1.8619881318        3.2231813749        1.2665314945
 C          3.2195954205        3.6224989077        0.6924360937
 C          4.3700469466        2.9678392981        1.4562735690
 C          5.7415337303        3.2370463321        0.8341070784
 C          6.0517655885        2.4034935688       -0.4150061554
 O          6.3632676396        1.0605685252       -0.0863311889
 C          5.4339649453        0.0924162843       -0.0412863039
 C          5.9160511910       -1.1552066274        0.4322254912
 C          5.0934271950       -2.2396708366        0.5674980741
 C          3.7427187383       -2.1142997670        0.2164790364
 C          2.6201038767       -2.9754001176        0.2695841280
 C          2.4221166110       -4.3005239074        0.6803087189
 C          1.1677712075       -4.8387006879        0.5956642564
 C          0.0705286308       -4.0945827770        0.0897594769
 O         -1.0899072109       -4.7671002234        0.0499536009
 C         -2.2774307310       -4.1277432897       -0.3871068904
 C         -2.8612237625       -3.1914463088        0.6733214936
 C         -4.1936455043       -2.5808657888        0.2458535702
 C         -4.0835029946       -1.6808878861       -0.9830102278
 C         -5.3725743089       -0.8975766156       -1.2149282057
 C         -5.2401852408        0.0623584154       -2.3904070769
 C          0.2461858161       -2.7767152318       -0.3341154737
 C          1.5086165077       -2.2267324021       -0.2208033861
 N          1.9294914811       -0.9624656550       -0.5607065604
 C          1.1107083182        0.0645327278       -1.0572261230
 C          1.5040579299        0.7912295075       -2.2133821460
 C          0.6269247249        1.7639963493       -2.6494936224
 N         -0.5062257988        2.0315336049       -2.0594395739
 C         -0.9289107875        1.3614125867       -0.9459643006
 C         -2.1946729539        1.7306096544       -0.4118854132
 C         -2.9358595693        2.7648924764       -1.0660246063
 C         -4.1953727998        3.1330751693       -0.6708510503
 C         -4.7993762920        2.4849291102        0.3940968569
 F         -6.0596067780        2.8187339057        0.7716121870
 C         -4.1145154517        1.4735259332        1.0994625058
 C         -4.7252440408        0.7776460354        2.1583076794
 N         -5.2214267630        0.1736520647        3.0007510305
 C         -2.8295779161        1.1401653022        0.6950153515
 F         -2.1942286990        0.1943877793        1.4336686472
 C         -0.0767687931        0.3565270052       -0.4351706367
 C          3.2751661390       -0.8696910904       -0.2996328248
 C          4.0996742093        0.2307978821       -0.4232517333
 H          0.8323640373        5.0557040877        0.7634701048
 H         -0.2362871221        3.6746968060        1.0186954531
 H          0.7023841384        3.7950846448       -0.4654427295
 H          1.8543482224        3.4212073313        2.3403848614
 H          1.7091078003        2.1514860094        1.1258090629
 H          3.2493259625        3.3495050062       -0.3641693489
 H          3.3282214016        4.7077715191        0.7475630607
 H          4.2019094734        1.8922259908        1.5298586173
 H          4.3711349714        3.3615557782        2.4749966385
 H          6.5196236604        3.0211280329        1.5689168276
 H          5.8167455662        4.2918325644        0.5637572245
 H          6.9654054980        2.7860862300       -0.8800727651
 H          5.2422246525        2.4626218542       -1.1463362742
 H          6.9595714943       -1.2078578607        0.6974494929
 H          5.4716247890       -3.1757241370        0.9468180724
 H          3.2481223657       -4.8814038343        1.0589972421
 H          0.9709263831       -5.8519039945        0.9065961191
 H         -2.9737319913       -4.9480646652       -0.5796177695
 H         -2.0955628371       -3.5925922897       -1.3233518241
 H         -2.1544983201       -2.3919481920        0.8886719847
 H         -3.0049296810       -3.7630623229        1.5917352061
 H         -4.5662028835       -1.9829605980        1.0778062095
 H         -4.9185779465       -3.3738606111        0.0542391329
 H         -3.2672557028       -0.9733495626       -0.8429333156
 H         -3.8677449495       -2.2766230385       -1.8715176948
 H         -5.6122427444       -0.3331209030       -0.3153302772
 H         -6.1934977685       -1.5940186221       -1.3977947170
 H         -4.4264969765        0.7604089309       -2.2142897416
 H         -5.0381248954       -0.4818216295       -3.3110420403
 H         -6.1575210668        0.6306600927       -2.5230687222
 H         -0.5632629802       -2.1962688000       -0.7408626546
 H          2.4107211227        0.5623410507       -2.7456509871
 H          0.8483317015        2.3525295136       -3.5314293661
 H         -2.4585126688        3.2455144257       -1.9028144463
 H         -4.7360285792        3.9120199412       -1.1841096137
 H         -0.3395754845       -0.1637470635        0.4677960178
 H          3.6957077506        1.1619981835       -0.7787268047
