80
 energy: -122.408955743663 gnorm: 0.000175862637 xtb: 6.7.1 (edcfbbe)
C            0.76165737019004        4.05043569193511        0.80247504102682
C            1.95941358468461        3.37225152339806        1.45783345158247
C            3.27194739620644        3.72260609709782        0.75946562197507
C            4.47394500778055        3.09429742169899        1.46418623682454
C            5.79803203321842        3.33930320140817        0.73589470195359
C            6.02563986178258        2.45981858892508       -0.49906245803350
O            6.36412687780310        1.12602080735449       -0.15418231409535
C            5.42475838117061        0.14681536860815       -0.03026350104459
C            5.91541029590156       -1.05904506627410        0.49956118091374
C            5.09868053091022       -2.14984289572720        0.69101680511140
C            3.75873457694689       -2.05782832160560        0.33231912776486
C            2.63744943156088       -2.95251359958242        0.41176110885609
C            2.47683241412551       -4.26580166211092        0.83876129471535
C            1.23567379229189       -4.85143174693149        0.73814649983497
C            0.13888032629813       -4.16122702381143        0.19599956900920
O           -1.00985165184692       -4.89194610185413        0.11573771119533
C           -2.17275432285237       -4.32035364843946       -0.45644829051746
C           -2.92049400823696       -3.40252913392483        0.51394237065262
C           -4.20047881739455       -2.81917560659020       -0.08463172606552
C           -3.94874075980187       -1.86999849380361       -1.25701230810762
C           -5.20347672079822       -1.08602544093561       -1.63728228494184
C           -4.95070239007504       -0.14018957959868       -2.80608934751262
C            0.27789534398285       -2.84654415544337       -0.23034467446996
C            1.52406344772816       -2.25259815847617       -0.09555617607067
N            1.92184214610651       -0.98140904994563       -0.48203030703731
C            1.09992954825688        0.00038618394847       -1.02560246455109
C            1.46924482993263        0.69514549075211       -2.17614003493500
C            0.59458007298375        1.65559688573578       -2.65767177720097
N           -0.56099461552848        1.94173969591102       -2.09624842504767
C           -0.92947657097646        1.28847403107403       -0.98964914415269
C           -2.23730904407676        1.70754060269756       -0.44633790890137
C           -2.87905609284116        2.79638244123966       -1.05165065260376
C           -4.11142355185993        3.25724768826648       -0.63635495138846
C           -4.74519464556336        2.62382251379231        0.41498905361049
F           -5.94772316746809        3.05437548323228        0.82883978670271
C           -4.15537360140019        1.53495487134559        1.05926000175060
C           -4.80417136082799        0.87825480647293        2.13051438193854
N           -5.33536938373162        0.34200756254521        2.99247644507640
C           -2.90249554515726        1.09872407836522        0.61476415777148
F           -2.37677060452853        0.04555101067555        1.26754468325515
C           -0.11942313345976        0.31106982680101       -0.41950267158594
C            3.28005486007179       -0.85811779579061       -0.23169738603947
C            4.09087385225781        0.25304452770807       -0.40295915966747
H            0.87711607740215        5.13179377665779        0.82551867091003
H           -0.15602511295610        3.79314179111751        1.32722936284368
H            0.66156442062675        3.73885392747213       -0.23509482728999
H            2.01850314377078        3.67755902390616        2.50522777133555
H            1.81947350579965        2.28797763910163        1.44000856530964
H            3.22092349035166        3.38943307100577       -0.27932171711401
H            3.39405988984871        4.80830407225536        0.74549735992751
H            4.31537760161063        2.02038683494955        1.58407492423337
H            4.54690226720316        3.52244876616306        2.46687926518162
H            6.62491624589351        3.14857427242087        1.42342336640259
H            5.85262924949349        4.38391284756935        0.42350104641485
H            6.90554801482285        2.82836824319380       -1.03707632763371
H            5.17266496752900        2.49621705661172       -1.18063715094764
H            6.96024414266201       -1.09488593226978        0.76579098621855
H            5.49095020011686       -3.05882610489076        1.11981929556323
H            3.31299175006161       -4.81985220544091        1.23598725121420
H            1.07356348072968       -5.86892352521865        1.05759669125014
H           -2.80254803684933       -5.17900865749634       -0.70759945541631
H           -1.91697492189053       -3.79596653323247       -1.38349940851855
H           -2.26537927412870       -2.59001235768698        0.83297605080561
H           -3.17030782571644       -3.98416047612990        1.40404595460709
H           -4.72036498955463       -2.27172191398041        0.70556088220238
H           -4.85517190933822       -3.63078129842346       -0.40850392426958
H           -3.15672563831010       -1.16596930438112       -0.99007923331967
H           -3.60936983705293       -2.43384413791248       -2.12786633479733
H           -5.54788034260244       -0.51485280607406       -0.77092349302604
H           -5.99817518480963       -1.78706487842786       -1.90125579260779
H           -4.14777302218368        0.55541952142228       -2.56955794941271
H           -4.66664159745591       -0.70129205878949       -3.69375643399150
H           -5.84678360523938        0.43220926967060       -3.03426107744710
H           -0.54230752713882       -2.30023328889395       -0.66574156641065
H            2.39253057156714        0.47300425767904       -2.68597236666970
H            0.82800080844465        2.22192844279808       -3.55009624288468
H           -2.36836595614627        3.26941470523220       -1.87504044738655
H           -4.58870692319996        4.09559634221063       -1.11709779534426
H           -0.38177841288842       -0.19678745818900        0.49184552998356
H            3.67713711367235        1.16789762851539       -0.79204531640286
