80
 energy: -122.404046444292 gnorm: 0.000055359186 xtb: 6.7.1 (edcfbbe)
C           10.01503331977401        0.74601534397653        0.26517303761124
C            8.61240619335208        0.47212309021765        0.79686620329833
C            7.71453688554247        1.71150000328667        0.80288898787488
C            7.44051885149841        2.32697656303866       -0.57197193965387
C            6.75452044474461        1.40009561659911       -1.57801914731829
C            5.33782912364024        1.00665369672111       -1.16822795108949
O            4.54906241664604        2.18275352004778       -1.12561052568656
C            3.25812945986533        2.10436707341078       -0.70630788169712
C            2.57625056391819        3.33092453879116       -0.65158701334874
C            1.25766061187935        3.40029338225530       -0.26542989549018
C            0.60096902779925        2.22984434535660        0.09708443438794
C           -0.74059569837989        1.93192554326080        0.51639001725388
C           -1.86384911508858        2.70534171242726        0.76255446550397
C           -3.02647072345967        2.09903430566618        1.19956278842982
C           -3.07709713755002        0.71858907983360        1.41508458865631
O           -4.16131844177325        0.03294550830891        1.88253540974949
C           -5.38390450789878        0.70674853237421        2.12128936046584
C           -6.16830894953873        0.99070915354473        0.83815060183899
C           -7.48901113416664        1.69380744658527        1.14412849923243
C           -8.35128555629591        1.92372108600232       -0.09831678781275
C           -7.76518910155851        2.94862723408908       -1.06854000045763
C           -8.70935036124302        3.22190392459599       -2.23429582983676
C           -1.95503817476161       -0.07472156523907        1.17355257651949
C           -0.80450131693250        0.53371906860658        0.71092221328315
N            0.43859253066896       -0.01976269922700        0.43870219157019
C            0.77013349882874       -1.36635290185929        0.53970002752384
C            1.94161210731819       -1.77715692981562        1.17965230250394
C            2.21530574058375       -3.13221606057955        1.24450294078192
N            1.42634987901862       -4.06569954122609        0.74511066948235
C            0.30633398763823       -3.68302025923959        0.13908403152393
C           -0.54778692657168       -4.75494819641904       -0.41168271386150
C           -1.11265130437558       -4.64749157157446       -1.68183282307218
C           -1.89788150869157       -5.65529499635586       -2.21283012124954
C           -2.13055424450400       -6.79216004986811       -1.46472220633018
F           -2.88959322020532       -7.77662918223753       -1.97457958316039
C           -1.59620297428968       -6.94472363520947       -0.18194273361798
C           -1.85194498397053       -8.10628639797266        0.58329779713265
N           -2.06595293074985       -9.04919739283238        1.19797014589928
C           -0.80163969512076       -5.91016510179194        0.32208216762463
F           -0.31639566909602       -6.04267561472673        1.56353428585499
C           -0.06202336531671       -2.34869002591920        0.00284758607829
C            1.29800794410763        1.00525132338318        0.06857554639884
C            2.61776165325337        0.92295391900352       -0.35213997648610
H           10.47874318323862        1.56108265014387        0.81746242983442
H            9.98968541404135        1.01348403478253       -0.78801445074480
H           10.63837937618898       -0.13926368348896        0.37435660365436
H            8.14909713560017       -0.32196206890604        0.20824244847567
H            8.69120444393001        0.10816629482798        1.82497302589352
H            6.76632706335519        1.45450594513786        1.28063425309463
H            8.18615469891510        2.47834123174431        1.42322835325563
H            8.38160576907077        2.66786549393251       -1.00599363268041
H            6.80640524477363        3.20537238515622       -0.43313137596141
H            7.33602176505315        0.48903247625577       -1.71848275307838
H            6.69537096799153        1.91595893113123       -2.53865804990052
H            5.34329919448759        0.52043295268496       -0.18492270622688
H            4.92092056438895        0.30384815789759       -1.90390433875701
H            3.12113517683951        4.21741831012078       -0.93600744786170
H            0.74107879593451        4.34725724263228       -0.24723789523233
H           -1.83368424941128        3.77458728825034        0.61977020872698
H           -3.89084614960151        2.71462114087847        1.38734653621822
H           -5.21266891412562        1.63075212305884        2.68656823655716
H           -5.94915213546810        0.01831460729759        2.75681799777554
H           -6.36106974927290        0.04185546926415        0.33262375142386
H           -5.55880894345961        1.60380963839691        0.17333969830146
H           -7.28601254643319        2.65447568334892        1.62378096998063
H           -8.05241563919666        1.08374927952590        1.85453229817127
H           -8.49493865925621        0.97390691379003       -0.61863327788021
H           -9.33494741182886        2.27419605325496        0.22437880332898
H           -6.81358384910016        2.58614926669375       -1.46107911080725
H           -7.57295817424406        3.88186721025950       -0.53331564984779
H           -9.65900555527097        3.61299974266605       -1.87451726603666
H           -8.27473398790313        3.94978956373688       -2.91614281785073
H           -8.90543921047352        2.30641638246092       -2.78899703332095
H           -2.01855674803201       -1.13142827704445        1.37806852086576
H            2.60116732393731       -1.05741655178208        1.63637493535404
H            3.11044353122676       -3.49707099481809        1.73048624313512
H           -0.91679982389774       -3.76398492413494       -2.26836910481607
H           -2.32743423286030       -5.57309936429259       -3.19817104797954
H           -0.97337727090557       -2.07600555327152       -0.50370198349531
H            3.11692540324390       -0.02965894087976       -0.41691211785615
