80
 energy: -122.323567843103 gnorm: 0.000052602050 xtb: 6.7.1 (edcfbbe)
C            0.76623399767337        4.12578292268027        0.72949090999099
C            1.94361114946089        3.45510708809830        1.42748128813741
C            3.26967831014236        3.75686459777154        0.73159346834304
C            4.45275843212761        3.12877366932483        1.46794903048670
C            5.79066894036274        3.34239245495711        0.75702756021313
C            6.01675260750347        2.43073015718490       -0.45516004742112
O            6.31815245882685        1.10256770656625       -0.05260064468666
C            5.39841567170000        0.13504772651078        0.03226721258791
C            5.89633899740913       -1.09045669954622        0.55208389910065
C            5.09199938237423       -2.18364238874453        0.71379769323986
C            3.74323667730123       -2.09296640532526        0.34101904064045
C            2.64544047843690       -2.98394573253079        0.38500109363951
C            2.48033748513394       -4.31014186770345        0.80976520688632
C            1.25033366072078       -4.89361012042621        0.68792013334425
C            0.14640080144620       -4.19579619918237        0.12895761782326
O           -0.97941496320466       -4.91792018975908        0.04148126428971
C           -2.16291072353759       -4.35769711563280       -0.50429593012672
C           -2.89919961325609       -3.46193762850221        0.49633686632984
C           -4.18555436393015       -2.87304799115795       -0.08166953973440
C           -3.94191986396244       -1.86812066724171       -1.20778967370708
C           -5.21586205533967       -1.11486860514503       -1.58538857646343
C           -4.97383467084500       -0.12824444408959       -2.72191542404568
C            0.28750458235301       -2.87354327675840       -0.29674931716459
C            1.52460400749232       -2.27695735393683       -0.14654762684340
N            1.91540931929465       -1.00551666642659       -0.49535903749913
C            1.08222042593929       -0.01074143767883       -1.04081731515647
C            1.47288111215147        0.66345358635028       -2.22470579845824
C            0.60070468980628        1.62321427110584       -2.69957076431070
N           -0.53209726788525        1.92289773054489       -2.12059438434819
C           -0.95498767509554        1.29341789395474       -0.98550427428084
C           -2.21075687771776        1.71582608982077       -0.45793452354770
C           -2.90277661841015        2.79023048962212       -1.11183498794553
C           -4.11899459536501        3.25305053952805       -0.68262031090997
C           -4.72570144566526        2.67536510816911        0.41942144418224
F           -5.94069314727136        3.12597905819805        0.85264070927953
C           -4.10428543325160        1.60974982722113        1.10926466330202
C           -4.71061740710965        1.00350391980842        2.21960425806919
N           -5.20928002956799        0.49744511428251        3.12533993277391
C           -2.87007492786685        1.16871308660783        0.65151022124667
F           -2.31543202322565        0.13335670424618        1.34348711070443
C           -0.10851377965392        0.30375979788363       -0.43290384969704
C            3.25465761414919       -0.87033056377096       -0.20967605043951
C            4.05934049050732        0.24200045610762       -0.35405740081184
H            0.89989503169344        5.20524391518674        0.70317243502331
H           -0.16274164502801        3.90982527665653        1.25317387103301
H            0.66643647568425        3.76706552217601       -0.29265628271772
H            1.99308384973798        3.80099872969284        2.46280363096270
H            1.78007348505578        2.37448237098820        1.44940667543545
H            3.21680032946023        3.39468410874436       -0.29717813130861
H            3.41111424315679        4.83919146921971        0.68592398435402
H            4.27453416668653        2.06058431204915        1.61202111062030
H            4.51520460903122        3.57819905522497        2.46164347174955
H            6.60639859799730        3.15971771575367        1.45924349845242
H            5.86132643590121        4.37692163692277        0.41811878039495
H            6.91351677605067        2.76289389999284       -0.98721356631523
H            5.17114187268152        2.46361128279396       -1.14392674559340
H            6.93880059570386       -1.11689202710942        0.82599097860310
H            5.48172115584208       -3.10103545477245        1.12454616089823
H            3.31273231426308       -4.85602374237436        1.22366079389838
H            1.07725565820265       -5.91000672528288        1.00297851063280
H           -2.78566501137625       -5.22163221703854       -0.75092859955223
H           -1.93323914113322       -3.81378333895868       -1.42515057289019
H           -2.24670483743561       -2.64872362673345        0.81999826180595
H           -3.13884677642595       -4.05950327721086        1.37824972986910
H           -4.71456640603331       -2.36537730681746        0.72832486175906
H           -4.82970848114253       -3.67730727604067       -0.44291760551680
H           -3.18815468136737       -1.14346258109839       -0.89120107661581
H           -3.56368056496201       -2.37948033433849       -2.09522167027688
H           -5.58775918469482       -0.57557539147003       -0.71015713900219
H           -5.98568090485752       -1.83143322550374       -1.88123138779825
H           -4.21114746616734        0.59555238801095       -2.44094360877362
H           -4.64182961591789       -0.64998287636939       -3.61720415024004
H           -5.88716749107743        0.41341232630234       -2.95731007513407
H           -0.53054995143614       -2.32285952146123       -0.73007688106234
H            2.38326276011980        0.41707829653575       -2.74259177571755
H            0.82564264367680        2.18017236284164       -3.60122233589680
H           -2.42010249552174        3.22725698107013       -1.96973467982702
H           -4.62030601164268        4.06213617058992       -1.19045258023728
H           -0.37596883606359       -0.18583714672742        0.48761196959485
H            3.64231855539047        1.15760533326728       -0.73702847206239
