  83
  -130.612369603600       0.288301878937008      !
 C         12.0412564543       -0.4103241261       -0.1298892546
 C         11.7249689251        0.7856667654        0.4949862609
 C         10.4186775066        1.2334455579        0.5151442003
 C          9.4096941787        0.4834668930       -0.0883603601
 C          8.0533699258        1.0019542712       -0.0525379642
 N          7.7488525435        2.2758699730       -0.0745613837
 N          6.4228837017        2.3940342992       -0.0630539099
 C          5.8943632623        1.1942493526       -0.0293858793
 C          4.4662665854        0.9461844265        0.0159714669
 C          3.9061912502       -0.1905019108        0.5966799803
 C          2.5368669560       -0.3643322249        0.6017761108
 C          1.6889435324        0.5966656782        0.0556344452
 C          0.2338331043        0.4041970150        0.0647230104
 C         -0.3271194997       -0.8268582041       -0.2750519618
 C         -1.6927440223       -0.9980190535       -0.2826311642
 C         -2.5524748550        0.0497387624        0.0659159587
 C         -3.9747759755       -0.2364884946        0.0451804880
 N         -4.4269433453       -1.4702095168        0.0344988751
 C         -5.7779131855       -1.3820541596        0.0170350322
 C         -6.7228551916       -2.4462297020        0.0134510591
 C         -6.3089323119       -3.7820308799        0.0286413934
 C         -7.2350986619       -4.7948057977        0.0348937316
 C         -8.5923727613       -4.4797444792        0.0287554028
 C         -9.0101244392       -3.1694747488        0.0121994021
 C         -8.0943430832       -2.1060868459        0.0002003166
 C         -8.5034846153       -0.7123344331       -0.0402646464
 C         -9.8563173528       -0.3470479104       -0.0837549220
 C        -10.2569560404        0.9662434527       -0.1519855354
 C         -9.3087778687        1.9829898520       -0.1930938297
 C         -7.9729476838        1.6689221201       -0.1459529564
 C         -7.5430146733        0.3372360640       -0.0540588050
 C         -6.1729695226       -0.0446077640        0.0088625190
 N         -5.0039806330        0.6810415145        0.0334447414
 C         -4.8829220074        2.0873573552        0.0327885006
 C         -5.1319727827        2.8032323070        1.2005110833
 C         -5.0058302162        4.1802012906        1.1979420305
 C         -4.6322232673        4.8429692582        0.0393558544
 C         -4.3852470772        4.1282816964       -1.1211992840
 C         -4.5088322418        2.7502171420       -1.1302248847
 C         -1.9902071883        1.2717883517        0.4348078475
 C         -0.6204841992        1.4447503372        0.4194925522
 C          2.2526157922        1.7491323100       -0.4914407428
 C          3.6194344617        1.9198561842       -0.5172910388
 N          6.8992718026        0.2555311366       -0.0220808070
 C          6.7938214016       -1.1457299162        0.0263142576
 C          7.3872358287       -1.8419221299        1.0736089110
 C          7.2907801761       -3.2206329360        1.1167979019
 C          6.6047697366       -3.9028531546        0.1251978016
 C          6.0142594247       -3.2054422720       -0.9164380865
 C          6.1076523341       -1.8269925727       -0.9732601327
 C          9.7363426411       -0.7066641301       -0.7350621690
 C         11.0465638193       -1.1482095579       -0.7493081165
 H         13.0619057326       -0.7624005971       -0.1419107811
 H         12.4998567530        1.3703716251        0.9678615786
 H         10.1544855136        2.1647489775        0.9908825778
 H          4.5337730116       -0.9336896299        1.0640574450
 H          2.1142842036       -1.2455455652        1.0618273433
 H          0.3190118944       -1.6449595783       -0.5584549760
 H         -2.1314691482       -1.9448836537       -0.5540753740
 H         -5.2486970005       -3.9812636228        0.0378573480
 H         -6.9203523576       -5.8278034745        0.0459854131
 H         -9.3259317512       -5.2730253881        0.0360609888
 H        -10.0708777595       -2.9757574491        0.0088714713
 H        -10.6180495427       -1.1094110261       -0.0665406490
 H        -11.3091253148        1.2078306433       -0.1830566186
 H         -9.6198585787        3.0147418403       -0.2635542948
 H         -7.2438343908        2.4616355921       -0.1889771063
 H         -5.4244053298        2.2734244217        2.0953309986
 H         -5.1996182255        4.7361966431        2.1028457165
 H         -4.5342399051        5.9178431731        0.0420497933
 H         -4.0955587317        4.6443200046       -2.0239807359
 H         -4.3170214580        2.1810639175       -2.0276521824
 H         -2.6109878331        2.0925974493        0.7544031889
 H         -0.2034175557        2.3961547859        0.7162966141
 H          1.6091155494        2.5033755638       -0.9196694658
 H          4.0623345563        2.8049538065       -0.9455792526
 H          7.9193042985       -1.2984893029        1.8405260738
 H          7.7509799374       -3.7613936395        1.9297112545
 H          6.5307907906       -4.9788353292        0.1637612680
 H          5.4807800048       -3.7354194413       -1.6908014301
 H          5.6511461067       -1.2719939305       -1.7796386139
 H          8.9756643763       -1.2783739802       -1.2453076342
 H         11.2912530752       -2.0715542283       -1.2533493983
  83
  -130.612366193800       0.287263493144601      !
 C         11.9797855478       -0.4119437590       -0.2467814312
 C         11.6953906463        0.5104597344        0.7476555607
 C         10.4030281320        0.9651056219        0.9232947773
 C          9.3769643095        0.4943811469        0.1053431781
 C          8.0334964941        1.0062989443        0.3150601969
 N          7.7547260698        2.2306264914        0.6866421744
 N          6.4295755022        2.3657140913        0.7425308187
 C          5.8801715384        1.2239758353        0.4106721006
 C          4.4509480314        0.9736101220        0.3855180520
 C          3.9042439664       -0.2585981040        0.7391003931
 C          2.5382952058       -0.4487429884        0.6989827327
 C          1.6807150674        0.5823297383        0.3191952701
 C          0.2292265431        0.3687361736        0.2742454649
 C         -0.3026230788       -0.8251620539       -0.2133038400
 C         -1.6650819626       -1.0235845519       -0.2562969074
 C         -2.5443994115       -0.0340543023        0.1884204252
 C         -3.9671611024       -0.3213229623        0.1397483759
 N         -4.4476294506       -1.5330079537        0.2802528434
 C         -5.7971270057       -1.4139878581        0.2026582735
 C         -6.7724347052       -2.4416843865        0.3334150589
 C         -6.3990048178       -3.7681886538        0.5730882831
 C         -7.3551909114       -4.7409470068        0.7238401622
 C         -8.7023718898       -4.3943519771        0.6404665752
 C         -9.0803511079       -3.0939001685        0.4008743258
 C         -8.1328423311       -2.0724455375        0.2320536760
 C         -8.4987112991       -0.6961991346       -0.0554988513
 C         -9.8366950587       -0.3126394340       -0.2242133733
 C        -10.1925581996        0.9773617794       -0.5389581516
 C         -9.2118578489        1.9475686273       -0.7179125932
 C         -7.8897715796        1.6159987133       -0.5526310412
 C         -7.5072000411        0.3131786663       -0.2023771096
 C         -6.1534135076       -0.0825317343       -0.0096395190
 N         -4.9653886510        0.6118026537       -0.0381677374
 C         -4.7611154494        1.9924494463       -0.2340924753
 C         -5.1813288563        2.9046528830        0.7296908381
 C         -4.9495609152        4.2545387907        0.5405832697
 C         -4.2973088553        4.6967982868       -0.5995141541
 C         -3.8768519118        3.7869176042       -1.5551862512
 C         -4.1060221599        2.4342821553       -1.3772766139
 C         -2.0156458930        1.1511207021        0.6980546796
 C         -0.6501743880        1.3480921825        0.7313687816
 C          2.2328345847        1.8215122469       -0.0048637893
 C          3.5970328020        2.0163826236        0.0272270534
 N          6.8648211724        0.3085566398        0.1237368204
 C          6.7118454797       -1.0296551906       -0.2768664307
 C          7.3330968918       -2.0425846443        0.4451419999
 C          7.1810318427       -3.3570098347        0.0437601273
 C          6.4107904734       -3.6629518385       -1.0663340275
 C          5.7910246934       -2.6509264718       -1.7812745897
 C          5.9400499703       -1.3322444171       -1.3933045077
 C          9.6715179710       -0.4160654620       -0.9072921032
 C         10.9678666561       -0.8660429026       -1.0760105541
 H         12.9895975977       -0.7695129811       -0.3814439207
 H         12.4842391246        0.8758920803        1.3879995524
 H         10.1639544555        1.6869940412        1.6883343721
 H          4.5429961907       -1.0649702922        1.0671025646
 H          2.1265089437       -1.4029608451        0.9923823153
 H          0.3622546623       -1.5936782050       -0.5796068828
 H         -2.0787508947       -1.9462845370       -0.6319845207
 H         -5.3454420557       -3.9908167682        0.6392658441
 H         -7.0719365813       -5.7664587592        0.9091295449
 H         -9.4592538941       -5.1553210331        0.7649189004
 H        -10.1345096214       -2.8736224803        0.3465581730
 H        -10.6214871229       -1.0431907763       -0.1138508492
 H        -11.2344523836        1.2346914684       -0.6599986383
 H         -9.4873010212        2.9559488141       -0.9889707048
 H         -7.1330321745        2.3678467483       -0.7095726906
 H         -5.6878787426        2.5471581703        1.6144973165
 H         -5.2764519130        4.9620732030        1.2876019186
 H         -4.1167860595        5.7513386040       -0.7418356077
 H         -3.3694847188        4.1297627551       -2.4441078708
 H         -3.7796461408        1.7149856027       -2.1137792642
 H         -2.6657335274        1.9142976998        1.0965740655
 H         -0.2569468011        2.2636614365        1.1480900923
 H          1.5841978114        2.6307223615       -0.3060863923
 H          4.0280182388        2.9726024686       -0.2245740890
 H          7.9294841815       -1.7924280315        1.3101210774
 H          7.6637623211       -4.1436143768        0.6033836061
 H          6.2933612537       -4.6904869024       -1.3745979782
 H          5.1919991855       -2.8863722937       -2.6477640167
 H          5.4640066855       -0.5347051462       -1.9445026924
 H          8.8956387453       -0.7587646959       -1.5756882568
 H         11.1882125846       -1.5711489321       -1.8637584446
  83
  -130.611726690400       0.146010814392654      !
 C         11.9753016487       -0.1820865116        0.3171383148
 C         11.6311237903        1.1428566614        0.1014163854
 C         10.3330090176        1.4767743494       -0.2319454381
 C          9.3610595073        0.4840571409       -0.3474140033
 C          8.0110167765        0.8781348920       -0.7123263333
 N          7.7220361945        1.8614243333       -1.5270867569
 N          6.3970741038        1.9228186322       -1.6663700541
 C          5.8588429812        0.9808965621       -0.9336737076
 C          4.4308422409        0.7582840840       -0.7923691749
 C          3.8547918785        0.4068059934        0.4267680818
 C          2.4890614443        0.2331531525        0.5238834760
 C          1.6666105082        0.3918415114       -0.5894145883
 C          0.2148763056        0.1929532013       -0.4874116524
 C         -0.5039417972        0.7160989508        0.5848703103
 C         -1.8709150782        0.5467300112        0.6735363742
 C         -2.5565047425       -0.1642696892       -0.3097914747
 C         -3.9913061457       -0.3942498446       -0.2656538819
 N         -4.5463586033       -1.5195322981       -0.6410748045
 C         -5.8810923143       -1.3630248101       -0.4438765456
 C         -6.9122481052       -2.3197641108       -0.6573377423
 C         -6.6204104616       -3.6103487200       -1.1108381259
 C         -7.6251930266       -4.5303197184       -1.2764594565
 C         -8.9388931794       -4.1684578414       -0.9847307914
 C         -9.2376320352       -2.9004313534       -0.5439213198
 C         -8.2399984474       -1.9286895874       -0.3711362914
 C         -8.5265218317       -0.5708954650        0.0588435984
 C         -9.8408888588       -0.1283626508        0.2648635576
 C        -10.1269825332        1.1663734710        0.6274809365
 C         -9.0988444138        2.0900237228        0.7855468159
 C         -7.7966282077        1.6956614186        0.6014330971
 C         -7.4814063971        0.3729573028        0.2587301881
 C         -6.1503738981       -0.0880753450        0.0521980063
 N         -4.9220608637        0.5212127618        0.1750288151
 C         -4.6185852672        1.8150321924        0.6418278502
 C         -4.8866219186        2.1619775298        1.9628562898
 C         -4.5536506905        3.4236978750        2.4197126648
 C         -3.9487972620        4.3358498031        1.5695811775
 C         -3.6781227522        3.9865657330        0.2571336968
 C         -4.0110859281        2.7283751085       -0.2114311274
 C         -1.8345641636       -0.7168429796       -1.3683799528
 C         -0.4722572903       -0.5304804226       -1.4612400417
 C          2.2486907610        0.7510670253       -1.8044306687
 C          3.6101859228        0.9437765114       -1.9039352973
 N          6.8491375817        0.2736887710       -0.2945363695
 C          6.6965327120       -0.8251927515        0.5676073098
 C          7.2726746413       -0.8010606963        1.8327606737
 C          7.1190730404       -1.8895280402        2.6716179539
 C          6.3912850948       -2.9932069461        2.2573388466
 C          5.8152798107       -3.0114651057        0.9975878028
 C          5.9663819723       -1.9315597800        0.1476069467
 C          9.7164656117       -0.8485334870       -0.1509066086
 C         11.0182221870       -1.1739511749        0.1826015505
 H         12.9894665416       -0.4423224077        0.5808333445
 H         12.3775931339        1.9175750192        0.1932615451
 H         10.0481791747        2.5018317173       -0.4100336378
 H          4.4710180281        0.2866923991        1.3056701445
 H          2.0535097875       -0.0475364800        1.4716067762
 H          0.0135103001        1.2783797791        1.3484748766
 H         -2.3997044159        0.9522932070        1.5227529179
 H         -5.5887995534       -3.8515321658       -1.3147023093
 H         -7.4046079189       -5.5286231220       -1.6242471560
 H         -9.7324246557       -4.8917167055       -1.1051742223
 H        -10.2681273698       -2.6679945655       -0.3273282081
 H        -10.6637119915       -0.8108882468        0.1273206366
 H        -11.1526549175        1.4701880862        0.7761670515
 H         -9.3227543758        3.1136891606        1.0467738711
 H         -7.0051592405        2.4206076216        0.7052724721
 H         -5.3565903949        1.4414774684        2.6166085911
 H         -4.7639086608        3.6932372890        3.4437375215
 H         -3.6879180703        5.3186728783        1.9314074575
 H         -3.2071264911        4.6955456129       -0.4065574514
 H         -3.8033741529        2.4448516965       -1.2325518512
 H         -2.3667440519       -1.2899413270       -2.1114966249
 H          0.0751091311       -0.9656035279       -2.2845546751
 H          1.6206955939        0.9023716403       -2.6698910698
 H          4.0620404365        1.2421911967       -2.8367841432
 H          7.8366409924        0.0651247856        2.1460986156
 H          7.5679380065       -1.8725483316        3.6530072042
 H          6.2727323926       -3.8394915155        2.9165220584
 H          5.2482426477       -3.8700986940        0.6716372099
 H          5.5247577382       -1.9362294590       -0.8379487286
 H          8.9846515190       -1.6326284307       -0.2767650412
 H         11.2863724574       -2.2092485400        0.3327837074
  83
  -130.611721381800       0.145192893307902      !
 C         12.0237856403       -0.1467076725       -0.0247990410
 C         11.6508009815        0.7037475417        1.0038173297
 C         10.3302982899        1.0826819404        1.1462505545
 C          9.3644691295        0.6072834778        0.2603091202
 C          7.9902172123        1.0432248135        0.4387030355
 N          7.6404198484        2.2282704756        0.8731427394
 N          6.3104818622        2.3004295751        0.8812716107
 C          5.8263664716        1.1587214010        0.4562681676
 C          4.4089087493        0.8641949761        0.3704726513
 C          3.8895164306       -0.4180236826        0.5395719384
 C          2.5276391764       -0.6305986037        0.4711465591
 C          1.6449391090        0.4231957280        0.2405972118
 C          0.1964266062        0.1960597127        0.1768388802
 C         -0.4230052843       -0.7238818629        1.0231105402
 C         -1.7869970165       -0.9152464034        0.9798284417
 C         -2.5791916263       -0.1873471392        0.0913579824
 C         -4.0133669268       -0.4226030166        0.0966725954
 N         -4.5471989716       -1.6021271006        0.2948424050
 C         -5.8913243050       -1.4226023352        0.2174064629
 C         -6.9110929615       -2.4097951372        0.3176009639
 C         -6.5967913214       -3.7599135484        0.5044699918
 C         -7.5930636854       -4.7021643735        0.5603768322
 C         -8.9211053660       -4.3023382085        0.4250487517
 C         -9.2417123978       -2.9766703916        0.2478935766
 C         -8.2528369601       -1.9823462981        0.1952763435
 C         -8.5607219318       -0.5706951800        0.0433221319
 C         -9.8835493680       -0.1071966425        0.0109458390
 C        -10.1862707563        1.2300684394       -0.0888066677
 C         -9.1660849623        2.1742135222       -0.1440125517
 C         -7.8565799082        1.7620197463       -0.1216804529
 C         -7.5264272572        0.4012093942       -0.0485098304
 C         -6.1871665333       -0.0804262138       -0.0179817667
 N         -4.9673394215        0.5507030906       -0.1065562112
 C         -4.6892980183        1.9098364041       -0.3499304272
 C         -4.0204928079        2.6576891496        0.6118449487
 C         -3.7102950552        3.9812477464        0.3561081057
 C         -4.0647671901        4.5597960430       -0.8512365037
 C         -4.7315654793        3.8128450183       -1.8093727255
 C         -5.0422666124        2.4878199202       -1.5659848856
 C         -1.9612444321        0.7085465595       -0.7795595825
 C         -0.5954576672        0.8971365603       -0.7314183064
 C          2.1708120949        1.7070732194        0.0901214999
 C          3.5292644129        1.9264233081        0.1568768882
 N          6.8639169187        0.3083784173        0.1542354367
 C          6.8023914404       -1.0097534884       -0.3302228166
 C          7.4201089202       -2.0331913755        0.3800296074
 C          7.3633683362       -3.3277929999       -0.1022947703
 C          6.6927835766       -3.6034992409       -1.2827886931
 C          6.0772439242       -2.5811628537       -1.9867623977
 C          6.1308158530       -1.2817654180       -1.5171683536
 C          9.7476196239       -0.2307340767       -0.7846070374
 C         11.0717180714       -0.6049445103       -0.9199411447
 H         13.0557600751       -0.4447886307       -0.1342310642
 H         12.3924440279        1.0724035418        1.6966674340
 H         10.0226342404        1.7486299956        1.9370286231
 H          4.5442029662       -1.2514310732        0.7442689514
 H          2.1436745030       -1.6336206845        0.5836285383
 H          0.1699777366       -1.2722709090        1.7399953977
 H         -2.2670750986       -1.6236298859        1.6368590650
 H         -5.5553259337       -4.0271403944        0.5934343973
 H         -7.3550949477       -5.7459792379        0.7022361535
 H         -9.7086535351       -5.0412680561        0.4594546838
 H        -10.2828409099       -2.7156696245        0.1436138324
 H        -10.6989132759       -0.8090873384        0.0768123805
 H        -11.2179007819        1.5489225516       -0.1098237806
 H         -9.4013822515        3.2267537422       -0.1985554687
 H         -7.0699752490        2.4992361319       -0.1437500360
 H         -3.7466508676        2.1957299482        1.5487740653
 H         -3.1920561319        4.5618069731        1.1042114756
 H         -3.8220865436        5.5931926257       -1.0465162578
 H         -5.0079747525        4.2614473887       -2.7516241245
 H         -5.5595376699        1.8943355312       -2.3059957387
 H         -2.5427362142        1.2450221715       -1.5137949122
 H         -0.1312537919        1.5815755020       -1.4261783379
 H          1.5024394692        2.5423792439       -0.0567509138
 H          3.9380840504        2.9191324517        0.0537824907
 H          7.9388115304       -1.8058321917        1.2996655323
 H          7.8427600302       -4.1226204158        0.4485230622
 H          6.6490910485       -4.6158253474       -1.6541154011
 H          5.5548893438       -2.7934960734       -2.9071320327
 H          5.6548302041       -0.4763708562       -2.0569709328
 H          9.0194503051       -0.5742463339       -1.5043585250
 H         11.3606181793       -1.2546863648       -1.7327278384
  83
  -130.611470329900       0.111319153395270      !
 C         11.9421247724        0.0693324170       -0.5831218987
 C         11.7046778776       -0.0810896853        0.7739335800
 C         10.4229759042        0.0464973873        1.2721043664
 C          9.3595600518        0.3228250476        0.4132290591
 C          8.0323053411        0.4589569104        0.9871501590
 N          7.7918108507        0.9308815951        2.1853383859
 N          6.4744534516        0.9452866271        2.3790316569
 C          5.8882322786        0.4779352839        1.3039211305
 C          4.4533875176        0.3186760717        1.1654830275
 C          3.8744116498       -0.6792931597        0.3836562747
 C          2.5011943969       -0.7833279121        0.2955032229
 C          1.6660677065        0.0941106160        0.9853535543
 C          0.2070479329       -0.0150817504        0.8723535904
 C         -0.4163569945       -1.2620274124        0.8102742676
 C         -1.7843453505       -1.3607116182        0.6867428458
 C         -2.5807225511       -0.2150551233        0.6127176751
 C         -4.0143217843       -0.4020876745        0.4793131856
 N         -4.6321665905       -1.4598294265        0.9477523830
 C         -5.9444098125       -1.2949636147        0.6467449972
 C         -7.0294717373       -2.1563128420        0.9714687356
 C         -6.8260456455       -3.3364638813        1.6940412989
 C         -7.8888931520       -4.1407213928        2.0210831739
 C         -9.1735860663       -3.7686323716        1.6303648811
 C         -9.3841645703       -2.6127702090        0.9154101252
 C         -8.3228879591       -1.7687100074        0.5539513593
 C         -8.5081488378       -0.5583440718       -0.2282241900
 C         -9.7688122381       -0.1855292483       -0.7155097508
 C         -9.9502427085        0.9353376750       -1.4905021866
 C         -8.8620879931        1.7331301374       -1.8285930015
 C         -7.6110112585        1.4076536123       -1.3659129255
 C         -7.4083065068        0.2834388065       -0.5525642563
 C         -6.1344807491       -0.0992669124       -0.0452500186
 N         -4.8853102976        0.4709762708       -0.1367277755
 C         -4.5285966500        1.6927569177       -0.7423461845
 C         -4.9447916833        2.8959509404       -0.1793250916
 C         -4.5663930144        4.0909731972       -0.7627218471
 C         -3.7725820379        4.0910974891       -1.8988652291
 C         -3.3583044608        2.8927638500       -2.4560663320
 C         -3.7336391977        1.6911818305       -1.8822833060
 C         -1.9645632984        1.0320716699        0.7062771847
 C         -0.5931774614        1.1251683769        0.8304063090
 C          2.2527857293        1.0727375611        1.7889548706
 C          3.6230373939        1.1825205171        1.8813214223
 N          6.8434052972        0.1486709870        0.3709681404
 C          6.6542256374       -0.3818027498       -0.9170526052
 C          7.2433661711       -1.5947152426       -1.2568040192
 C          7.0555364700       -2.1113940072       -2.5255371400
 C          6.2827545235       -1.4274002797       -3.4499149575
 C          5.6969869640       -0.2194287789       -3.1072736112
 C          5.8811849442        0.3099404174       -1.8432990743
 C          9.6070105576        0.4966165869       -0.9466917969
 C         10.8931965631        0.3653418551       -1.4372744502
 H         12.9437560098       -0.0342353877       -0.9729903820
 H         12.5219435632       -0.2985625500        1.4451092759
 H         10.2194815646       -0.0612214401        2.3257641398
 H          4.4923893306       -1.3885194435       -0.1455350505
 H          2.0692410157       -1.5481334150       -0.3330377210
 H          0.1796157055       -2.1598604493        0.8811929964
 H         -2.2689524684       -2.3235225305        0.6465705037
 H         -5.8164530493       -3.5819756492        1.9845585111
 H         -7.7370554986       -5.0522212916        2.5798988809
 H        -10.0146574100       -4.3945728078        1.8915615813
 H        -10.3963970692       -2.3651426505        0.6381505134
 H        -10.6309219416       -0.7919585339       -0.4904635521
 H        -10.9373540587        1.1897836813       -1.8472996798
 H         -8.9984906014        2.6021094022       -2.4549306301
 H         -6.7689011594        2.0200442380       -1.6455614209
 H         -5.5621702896        2.8818014256        0.7071314804
 H         -4.8889601386        5.0240847303       -0.3259910479
 H         -3.4771070570        5.0265462797       -2.3490455570
 H         -2.7414087941        2.8914544772       -3.3418915013
 H         -3.4139591289        0.7503928057       -2.3053941681
 H         -2.5518506125        1.9368405060        0.7022293167
 H         -0.1335257582        2.1013350174        0.8794820119
 H          1.6248934347        1.7377908144        2.3626867843
 H          4.0801871340        1.9307088590        2.5092204083
 H          7.8425149820       -2.1189886015       -0.5269023129
 H          7.5118239077       -3.0531794296       -2.7898869136
 H          6.1370037089       -1.8359629094       -4.4381065199
 H          5.0960639272        0.3161563767       -3.8264242926
 H          5.4297758466        1.2506381437       -1.5640302658
 H          8.8032657272        0.7534902134       -1.6203015799
 H         11.0762436635        0.5010596398       -2.4929603205
  83
  -130.609934339100       2.191176682256592E-002 !
 C         12.0340930199       -0.3167219771       -0.0428361052
 C         11.6847489471        0.7332643325        0.7917357871
 C         10.3727060864        1.1586914710        0.8584528354
 C          9.3911106852        0.5321202229        0.0909013376
 C          8.0282637856        1.0242429754        0.1888920750
 N          7.7118632934        2.2758082714        0.4118185254
 N          6.3846027163        2.3835515184        0.4142340678
 C          5.8682854790        1.1984831024        0.1962973324
 C          4.4433157854        0.9300001665        0.1705703211
 C          3.8959637947       -0.2897557927        0.5645798244
 C          2.5290926896       -0.4779571875        0.5373601546
 C          1.6713777737        0.5450197380        0.1382900596
 C          0.2178771050        0.3422044831        0.1291934259
 C         -0.6381490242        1.3311305106        0.6086258125
 C         -2.0059786539        1.1482672338        0.6148675402
 C         -2.5611864439       -0.0299533385        0.1171735115
 C         -3.9860672214       -0.3062179278        0.0938721027
 N         -4.4647226964       -1.5249720053        0.1732879671
 C         -5.8148706742       -1.4035718201        0.1346193877
 C         -6.7868617166       -2.4389594199        0.2222392703
 C         -6.4076012375       -3.7773200893        0.3678588904
 C         -7.3598855229       -4.7596622299        0.4754563950
 C         -8.7086202017       -4.4108775469        0.4424357788
 C         -9.0923649695       -3.0983529432        0.2953334415
 C         -8.1492297662       -2.0662323677        0.1737881387
 C         -8.5215262547       -0.6746202696       -0.0155280610
 C         -9.8630990994       -0.2824864248       -0.1256807858
 C        -10.2261531121        1.0247366328       -0.3476101159
 C         -9.2498511721        2.0057043207       -0.4879625960
 C         -7.9242090562        1.6657284933       -0.3774316877
 C         -7.5336175916        0.3433473804       -0.1219465464
 C         -6.1756967420       -0.0621783096        0.0115085610
 N         -4.9888311693        0.6342803098       -0.0035587074
 C         -4.7992206526        2.0268123106       -0.1153799483
 C         -5.1723654169        2.8662767738        0.9305537301
 C         -4.9582582236        4.2280609560        0.8239589856
 C         -4.3710404276        4.7539109485       -0.3160333383
 C         -3.9984565433        3.9163370354       -1.3541981100
 C         -4.2103859628        2.5525097500       -1.2591679631
 C         -1.7033576855       -1.0294663514       -0.3493575643
 C         -0.3381780285       -0.8477876076       -0.3397074128
 C          2.2235595852        1.7710409313       -0.2324427312
 C          3.5881065130        1.9614153942       -0.2201064242
 N          6.8809459006        0.2815229810        0.0410966371
 C          6.7762428015       -1.0985722818       -0.2054022335
 C          7.3605469217       -2.0020077294        0.6755517653
 C          7.2589307791       -3.3584960131        0.4272031439
 C          6.5760277197       -3.8140726901       -0.6888430930
 C          5.9931272502       -2.9107379099       -1.5628856764
 C          6.0922148238       -1.5515861792       -1.3282845968
 C          9.7512316470       -0.5074228592       -0.7638068664
 C         11.0671708552       -0.9279410478       -0.8233423282
 H         13.0593311447       -0.6519199822       -0.0920006265
 H         12.4381857665        1.2211863976        1.3919211780
 H         10.0819348094        1.9775206265        1.4975190761
 H          4.5322817552       -1.0876156886        0.9160562758
 H          2.1163189247       -1.4224832669        0.8598279695
 H         -0.2229699720        2.2436886183        1.0107429450
 H         -2.6346010442        1.9186986828        1.0325898256
 H         -5.3527151776       -4.0017964966        0.3974059054
 H         -7.0720643033       -5.7943797250        0.5886691249
 H         -9.4623941171       -5.1797336186        0.5325906038
 H        -10.1476733533       -2.8774018181        0.2766508647
 H        -10.6452503220       -1.0193673857       -0.0422631092
 H        -11.2706565807        1.2879800437       -0.4260146714
 H         -9.5314328331        3.0292483207       -0.6862730508
 H         -7.1713211548        2.4274493239       -0.5023431714
 H         -5.6283894700        2.4434134617        1.8139904183
 H         -5.2475620669        4.8791720353        1.6350449011
 H         -4.2037469720        5.8173502369       -0.3938669074
 H         -3.5424715381        4.3249356251       -2.2432129876
 H         -3.9214853551        1.8888818000       -2.0606574213
 H         -2.1382777921       -1.9462260405       -0.7151459247
 H          0.3095002719       -1.6243349879       -0.7197425521
 H          1.5733867387        2.5723548953       -0.5510093970
 H          4.0208253698        2.9067915545       -0.5067923888
 H          7.8904787221       -1.6344534456        1.5420121147
 H          7.7130212374       -4.0601694649        1.1101719680
 H          6.4973357276       -4.8738454614       -0.8771092662
 H          5.4622915133       -3.2635207726       -2.4340138625
 H          5.6426957273       -0.8375451093       -2.0026617356
 H          9.0124489448       -0.9757789428       -1.3968529716
 H         11.3382370959       -1.7348889356       -1.4880552068
