  83
       -131.11908277
 C         11.9759231335       -0.5126900315       -0.2455087355
 C         11.6988313881        0.3971963041        0.7624300605
 C         10.4103479383        0.8604224112        0.9440474033
 C          9.3808342343        0.4109409605        0.1185164974
 C          8.0417209165        0.9313669575        0.3350323950
 N          7.7733499952        2.1523903379        0.7247027828
 N          6.4493852171        2.2981814124        0.7817856701
 C          5.8903032458        1.1663652612        0.4325569220
 C          4.4589719079        0.9288795283        0.4027797946
 C          3.9012886213       -0.3036590650        0.7375646312
 C          2.5337654782       -0.4812613084        0.6937649002
 C          1.6854854790        0.5628125653        0.3289033272
 C          0.2322251631        0.3625834921        0.2798686007
 C         -0.3096410796       -0.8192114768       -0.2258021904
 C         -1.6737444461       -1.0050775688       -0.2725985906
 C         -2.5447398147       -0.0146708241        0.1863178992
 C         -3.9699135007       -0.2887589169        0.1324777405
 N         -4.4610253553       -1.4981711018        0.2545562837
 C         -5.8093762955       -1.3662381319        0.1779156615
 C         -6.7936982980       -2.3872274240        0.2926922312
 C         -6.4320191270       -3.7203718254        0.5127397002
 C         -7.3967565705       -4.6868967418        0.6483422040
 C         -8.7408039638       -4.3273567569        0.5693266238
 C         -9.1072593329       -3.0202224420        0.3489678553
 C         -8.1507610904       -2.0046628486        0.1960211937
 C         -8.5044104287       -0.6211342544       -0.0711519597
 C         -9.8388750440       -0.2234401169       -0.2349406600
 C        -10.1832499972        1.0741752517       -0.5305861028
 C         -9.1940003605        2.0383566431       -0.6944110052
 C         -7.8749771007        1.6928344762       -0.5332875280
 C         -7.5040330249        0.3816386156       -0.2023120282
 C         -6.1538900780       -0.0287012190       -0.0146748213
 N         -4.9598399461        0.6555927881       -0.0320861902
 C         -4.7433991380        2.0371787751       -0.2072236984
 C         -5.1563701261        2.9385093336        0.7698284393
 C         -4.9127087334        4.2889973452        0.6010644890
 C         -4.2557753469        4.7425376058       -0.5318909846
 C         -3.8425466640        3.8434061245       -1.5007979409
 C         -4.0836260392        2.4903136539       -1.3432701654
 C         -2.0060620832        1.1580992210        0.7139388525
 C         -0.6389516101        1.3426328662        0.7510375413
 C          2.2486226825        1.8018359972        0.0237460718
 C          3.6144425261        1.9842982386        0.0595894424
 N          6.8671543971        0.2467819811        0.1325777902
 C          6.7028252138       -1.0839089994       -0.2880798668
 C          7.3146875205       -2.1128946692        0.4190895456
 C          7.1514767685       -3.4197988789       -0.0019905004
 C          6.3794299971       -3.7023885260       -1.1170098649
 C          5.7690401002       -2.6744253808       -1.8171247970
 C          5.9292583196       -1.3630380183       -1.4093932837
 C          9.6682021423       -0.4868069570       -0.9074335316
 C         10.9607071054       -0.9455035023       -1.0820586322
 H         12.9826820354       -0.8770017250       -0.3848773623
 H         12.4903543642        0.7461245055        1.4086526517
 H         10.1770003597        1.5728562263        1.7196450187
 H          4.5327455140       -1.1203834552        1.0538704921
 H          2.1134618454       -1.4361286851        0.9726127226
 H          0.3487896785       -1.5879384599       -0.6031417809
 H         -2.0951554202       -1.9184172791       -0.6622930803
 H         -5.3804858012       -3.9531453633        0.5762328930
 H         -7.1225864338       -5.7174944646        0.8184556811
 H         -9.5043800561       -5.0834695510        0.6819216853
 H        -10.1594177408       -2.7899710255        0.2972992387
 H        -10.6300845733       -0.9486857586       -0.1359963607
 H        -11.2227718030        1.3423631987       -0.6484101213
 H         -9.4604447177        3.0530388628       -0.9505348810
 H         -7.1115987578        2.4403143426       -0.6785047139
 H         -5.6666773742        2.5722650395        1.6488787170
 H         -5.2339818497        4.9881145873        1.3583743314
 H         -4.0659653317        5.7974721142       -0.6583207982
 H         -3.3315466948        4.1950574128       -2.3841813881
 H         -3.7629782278        1.7792833849       -2.0902413349
 H         -2.6497739238        1.9208774359        1.1234205058
 H         -0.2380740302        2.2484080539        1.1816419072
 H          1.6072863056        2.6210839445       -0.2657469027
 H          4.0539309148        2.9403782355       -0.1776228041
 H          7.9125842449       -1.8809028669        1.2880799054
 H          7.6269167896       -4.2188587478        0.5461098287
 H          6.2532835877       -4.7241391227       -1.4406723340
 H          5.1686345556       -2.8916630131       -2.6874070584
 H          5.4605942003       -0.5532292858       -1.9489016678
 H          8.8898669746       -0.8126993958       -1.5813572966
 H         11.1754908597       -1.6406547567       -1.8801226976
  83
       -131.11897708
 C         12.0308631020       -0.4220323905       -0.0420028016
 C         11.6903827083        0.6218250703        0.8038443938
 C         10.3820991464        1.0580192126        0.8747293354
 C          9.3953822774        0.4485068540        0.1000417420
 C          8.0368686322        0.9514958520        0.2029076919
 N          7.7313783947        2.2032902605        0.4393556515
 N          6.4051149598        2.3226664003        0.4424733814
 C          5.8785018272        1.1446295366        0.2114434763
 C          4.4512395056        0.8889822612        0.1822830643
 C          3.8930114737       -0.3301365362        0.5627736851
 C          2.5245516785       -0.5060046980        0.5330168003
 C          1.6760401998        0.5287634221        0.1448199227
 C          0.2208175797        0.3388469598        0.1329947999
 C         -0.6267013766        1.3299763527        0.6228774187
 C         -1.9960878678        1.1590894594        0.6266378070
 C         -2.5614034575       -0.0087087321        0.1159280839
 C         -3.9886463475       -0.2721641203        0.0891083084
 N         -4.4780295667       -1.4874558398        0.1550593960
 C         -5.8270409349       -1.3537750192        0.1172362200
 C         -6.8081329064       -2.3814700758        0.1932146801
 C         -6.4407144032       -3.7246214570        0.3243667944
 C         -7.4016432451       -4.6996672967        0.4209071262
 C         -8.7472456697       -4.3386982714        0.3912115453
 C         -9.1193746649       -3.0213248319        0.2582934817
 C         -8.1671507964       -1.9962729555        0.1483457228
 C         -8.5271178611       -0.5994602735       -0.0259172225
 C         -9.8651429242       -0.1943685108       -0.1322650800
 C        -10.2165947440        1.1183376504       -0.3400561262
 C         -9.2316464554        2.0921550529       -0.4693559206
 C         -7.9090933113        1.7393521391       -0.3620668280
 C         -7.5302534771        0.4108815063       -0.1208774516
 C         -6.1760092588       -0.0079985393        0.0086311934
 N         -4.9830623625        0.6781206390        0.0015817517
 C         -4.7811711102        2.0700678771       -0.0949807660
 C         -5.1473968426        2.9013294044        0.9599115726
 C         -4.9212824351        4.2622594824        0.8682486787
 C         -4.3289510962        4.7953216082       -0.2657327180
 C         -3.9632731185        3.9658706904       -1.3128361969
 C         -4.1872225656        2.6030046243       -1.2327587155
 C         -1.7121808096       -1.0105805553       -0.3611687937
 C         -0.3454617791       -0.8410280123       -0.3490521086
 C          2.2391424065        1.7538506403       -0.2123253335
 C          3.6053039364        1.9320743317       -0.1974280575
 N          6.8831349394        0.2205474397        0.0466137531
 C          6.7664190217       -1.1558048676       -0.2149566722
 C          7.3423630751       -2.0738921867        0.6563016034
 C          7.2289422880       -3.4266468081        0.3931400536
 C          6.5425663646       -3.8640087365       -0.7280506240
 C          5.9680219000       -2.9461097558       -1.5923984935
 C          6.0789438343       -1.5905198582       -1.3429555246
 C          9.7467400166       -0.5847836576       -0.7658228540
 C         11.0589596698       -1.0161818741       -0.8294717208
 H         13.0531380332       -0.7656758849       -0.0944544851
 H         12.4478070084        1.0965323153        1.4095827425
 H         10.0982462165        1.8723583490        1.5225827652
 H          4.5221343994       -1.1373442905        0.9057556698
 H          2.1033477045       -1.4503240149        0.8450190876
 H         -0.2037005534        2.2344111785        1.0350692223
 H         -2.6181041322        1.9304189650        1.0525124311
 H         -5.3878552318       -3.9586729017        0.3518398574
 H         -7.1229774064       -5.7380480538        0.5229327359
 H         -9.5077878335       -5.1018342213        0.4727088217
 H        -10.1726920332       -2.7909130407        0.2416456193
 H        -10.6537772555       -0.9252095416       -0.0571659883
 H        -11.2587089655        1.3915935920       -0.4159573990
 H         -9.5041327173        3.1202361775       -0.6565938080
 H         -7.1494841265        2.4957402109       -0.4783968146
 H         -5.6075185455        2.4728869968        1.8385223065
 H         -5.2052196208        4.9070089482        1.6862832223
 H         -4.1522834602        5.8580341381       -0.3319060520
 H         -3.5033132996        4.3801109241       -2.1971803486
 H         -3.9038029343        1.9456384522       -2.0413340040
 H         -2.1549752619       -1.9194389897       -0.7370868308
 H          0.2955388816       -1.6190512140       -0.7373017351
 H          1.5961806149        2.5642752008       -0.5223667598
 H          4.0464435322        2.8766782328       -0.4736342537
 H          7.8751129005       -1.7204783675        1.5269069661
 H          7.6765402637       -4.1396888460        1.0685786491
 H          6.4546492228       -4.9209334453       -0.9278896702
 H          5.4345000933       -3.2846947720       -2.4675106652
 H          5.6360218476       -0.8652452640       -2.0096664586
 H          9.0041560603       -1.0396974787       -1.4042013911
 H         11.3232243275       -1.8181880866       -1.5028477207
  83
       -131.11891885
 C         12.0221452940       -0.2458756085       -0.0335704115
 C         11.6567186382        0.5955336620        1.0051485417
 C         10.3394684796        0.9836859237        1.1527822166
 C          9.3693024930        0.5267003248        0.2619039920
 C          7.9987945564        0.9718772642        0.4461946799
 N          7.6590334832        2.1546080862        0.8946804535
 N          6.3297426528        2.2376672315        0.9044338146
 C          5.8359830831        1.1050579551        0.4663802709
 C          4.4160935908        0.8232930966        0.3779751003
 C          3.8861860416       -0.4564768315        0.5323595518
 C          2.5225621214       -0.6569618192        0.4622499290
 C          1.6485041963        0.4067263708        0.2445687813
 C          0.1981297375        0.1923438760        0.1790062921
 C         -0.4284827524       -0.7322877051        1.0148156716
 C         -1.7940331510       -0.9118414063        0.9700971054
 C         -2.5806092703       -0.1670598272        0.0906724049
 C         -4.0166804060       -0.3904887496        0.0940746625
 N         -4.5601626972       -1.5677955893        0.2787381255
 C         -5.9027933896       -1.3762625465        0.2041975605
 C         -6.9306512017       -2.3560904830        0.2934287895
 C         -6.6274469266       -3.7108584465        0.4642977781
 C         -7.6314588619       -4.6454248389        0.5097566333
 C         -8.9562108647       -4.2330682304        0.3798970345
 C         -9.2659179906       -2.9028099245        0.2184587443
 C         -8.2688699825       -1.9161529392        0.1769031146
 C         -8.5651312528       -0.5003205024        0.0416630025
 C         -9.8840915849       -0.0255466844        0.0154903289
 C        -10.1757797423        1.3152534038       -0.0684253615
 C         -9.1478391729        2.2515078146       -0.1131751697
 C         -7.8417809155        1.8282613111       -0.0964376743
 C         -7.5228704018        0.4640026846       -0.0393937310
 C         -6.1876284160       -0.0290206520       -0.0152910926
 N         -4.9626613122        0.5929892277       -0.0971880886
 C         -4.6734959636        1.9525323123       -0.3248004717
 C         -3.9980508118        2.6835135323        0.6452697913
 C         -3.6770308123        4.0073642817        0.4048603677
 C         -4.0272922688        4.6029226982       -0.7954215643
 C         -4.7007213198        3.8727838915       -1.7618435465
 C         -5.0222628743        2.5476155527       -1.5337991475
 C         -1.9556926014        0.7338272149       -0.7700617894
 C         -0.5883678225        0.9105349142       -0.7205179079
 C          2.1849150482        1.6878832794        0.1088222392
 C          3.5451694258        1.8951906273        0.1773432970
 N          6.8663095773        0.2497552174        0.1538063869
 C          6.7936355816       -1.0620595986       -0.3460108631
 C          7.4032063879       -2.0988191798        0.3518512310
 C          7.3355129829       -3.3871707045       -0.1455596824
 C          6.6620902535       -3.6434782096       -1.3288060824
 C          6.0546911562       -2.6079115510       -2.0204040591
 C          6.1192494841       -1.3145894316       -1.5356646120
 C          9.7449896247       -0.3021658097       -0.7929740150
 C         11.0658780050       -0.6857074645       -0.9334558773
 H         13.0515627023       -0.5511821478       -0.1470894672
 H         12.4017278609        0.9499034138        1.7018308645
 H         10.0377160612        1.6428514898        1.9514812636
 H          4.5340502728       -1.2976116544        0.7269035141
 H          2.1303613881       -1.6580213225        0.5632094072
 H          0.1602907927       -1.2939203015        1.7248845747
 H         -2.2796377768       -1.6238736617        1.6190728968
 H         -5.5881862385       -3.9877156236        0.5495170956
 H         -7.4020709201       -5.6927622046        0.6392489995
 H         -9.7498329517       -4.9658095704        0.4061137888
 H        -10.3049008661       -2.6320016433        0.1178520677
 H        -10.7052063801       -0.7213909365        0.0736153882
 H        -11.2047446765        1.6428555653       -0.0851035414
 H         -9.3744407385        3.3065251345       -0.1552565678
 H         -7.0491104483        2.5591527224       -0.1103384287
 H         -3.7275839801        2.2083656297        1.5765667607
 H         -3.1536365365        4.5748167440        1.1594035305
 H         -3.7761597872        5.6364919256       -0.9787346966
 H         -4.9738685896        4.3346598951       -2.6986172642
 H         -5.5447923647        1.9671364926       -2.2804022027
 H         -2.5330824390        1.2836556939       -1.4976261601
 H         -0.1188535878        1.5991981984       -1.4074914653
 H          1.5234092473        2.5303526881       -0.0278708405
 H          3.9621434832        2.8856227061        0.0856354601
 H          7.9242241061       -1.8865428006        1.2737807873
 H          7.8085773955       -4.1923320862        0.3956357656
 H          6.6098358961       -4.6509908676       -1.7119306484
 H          5.5301456392       -2.8051247064       -2.9428892572
 H          5.6496838854       -0.4990191481       -2.0657238764
 H          9.0136486602       -0.6311908785       -1.5162694798
 H         11.3489905213       -1.3282555576       -1.7539613376
  83
       -131.11880026
 C         12.0301726230       -0.1724924472        0.0627589990
 C         11.6374839527        0.7110613958        1.0555556157
 C         10.3130241141        1.0858682528        1.1660926958
 C          9.3623236809        0.5743476800        0.2833358624
 C          7.9831836937        1.0031617565        0.4363457167
 N          7.6210420413        2.1882405967        0.8613163424
 N          6.2912113770        2.2525519211        0.8549370651
 C          5.8183123410        1.1059520053        0.4298715388
 C          4.4029946482        0.8053557608        0.3296760953
 C          3.8842077682       -0.4773905507        0.4963205759
 C          2.5230977853       -0.6923487356        0.4163921657
 C          1.6407630198        0.3594353355        0.1761029751
 C          0.1922256840        0.1337897085        0.1058765886
 C         -0.4327604995       -0.7799313393        0.9545649846
 C         -1.7985583402       -0.9604377363        0.9141784693
 C         -2.5859017999       -0.2264067439        0.0271443885
 C         -4.0248955133       -0.4338971758        0.0462796348
 N         -4.5851786742       -1.6045363633        0.2184143741
 C         -5.9259828224       -1.3874327910        0.1759211755
 C         -6.9702529700       -2.3497907639        0.2639965188
 C         -6.6902325891       -3.7138890347        0.3952457209
 C         -7.7111040927       -4.6302451368        0.4353316153
 C         -9.0297657222       -4.1904441831        0.3381371344
 C         -9.3167365030       -2.8508590289        0.2178010836
 C         -8.3019545918       -1.8821188235        0.1865865226
 C         -8.5739224806       -0.4573297683        0.1039642989
 C         -9.8828450454        0.0438720567        0.1391480167
 C        -10.1486140007        1.3924419253        0.1147041268
 C         -9.1034044138        2.3093239303        0.0682883814
 C         -7.8066981783        1.8601415030        0.0229958953
 C         -7.5152521498        0.4885627609        0.0211842636
 C         -6.1902534608       -0.0309641948       -0.0083752655
 N         -4.9562365517        0.5706132300       -0.1046128204
 C         -4.6456775407        1.9252539697       -0.3307736381
 C         -3.9116893777        2.6306511824        0.6155290919
 C         -3.5686885071        3.9485124655        0.3727182916
 C         -3.9545248918        4.5635999123       -0.8065332616
 C         -4.6869043998        3.8592238623       -1.7489331980
 C         -5.0314899581        2.5403300769       -1.5182563008
 C         -1.9624443192        0.6593615753       -0.8498630031
 C         -0.5949232331        0.8358981221       -0.8057748951
 C          2.1660474495        1.6438076195        0.0268186732
 C          3.5233558091        1.8654736148        0.1049861092
 N          6.8639800431        0.2607398381        0.1428320164
 C          6.8090950698       -1.0607431716       -0.3334965866
 C          7.4092268313       -2.0815806401        0.3952739184
 C          7.3566573364       -3.3790399151       -0.0797063832
 C          6.7072928727       -3.6601412289       -1.2707065109
 C          6.1095120866       -2.6402761904       -1.9932899502
 C          6.1594110518       -1.3380001569       -1.5313086792
 C          9.7663238339       -0.2936341035       -0.7286371005
 C         11.0941229393       -0.6650550669       -0.8308123549
 H         13.0651979935       -0.4680297278       -0.0213748278
 H         12.3666973099        1.1080015935        1.7458417808
 H          9.9894529906        1.7764501691        1.9288284266
 H          4.5382138009       -1.3095582455        0.7082373681
 H          2.1397973680       -1.6956908067        0.5287437492
 H          0.1568577676       -1.3311402099        1.6720016229
 H         -2.2828876761       -1.6622645211        1.5751790924
 H         -5.6551526708       -4.0125637694        0.4530345946
 H         -7.4994274809       -5.6845506824        0.5339544204
 H         -9.8363961760       -4.9090079842        0.3569373885
 H        -10.3516575660       -2.5579739577        0.1402459579
 H        -10.7159791229       -0.6371586992        0.2017052020
 H        -11.1703910636        1.7408270507        0.1467724517
 H         -9.3093086786        3.3693951385        0.0743222759
 H         -6.9992006219        2.5747838040        0.0087272181
 H         -3.6151885120        2.1412418768        1.5313575898
 H         -2.9974503494        4.4948760363        1.1077759555
 H         -3.6848852882        5.5920295363       -0.9925015944
 H         -4.9877619519        4.3362126371       -2.6695449905
 H         -5.6006216961        1.9805783891       -2.2463741705
 H         -2.5423869886        1.1987484871       -1.5834143526
 H         -0.1261043492        1.5142297268       -1.5033352460
 H          1.4976495108        2.4777161704       -0.1275516273
 H          3.9315431818        2.8585836524        0.0033778139
 H          7.9120102743       -1.8497767483        1.3226004114
 H          7.8216512203       -4.1721803979        0.4856773980
 H          6.6681186480       -4.6745381073       -1.6368121042
 H          5.6043289492       -2.8567317618       -2.9221999721
 H          5.6984355126       -0.5339887906       -2.0859636468
 H          9.0519551988       -0.6646166837       -1.4483016883
 H         11.3990587035       -1.3383408914       -1.6183235300
  83
       -131.11866901
 C         11.9733725385       -0.2812612080        0.3175279084
 C         11.6407163594        1.0426048992        0.0783895435
 C         10.3454433217        1.3819023826       -0.2605471266
 C          9.3648006006        0.3958386209       -0.3581401978
 C          8.0181156898        0.7951787511       -0.7296787139
 N          7.7374325461        1.7663376537       -1.5617062426
 N          6.4130042788        1.8368464809       -1.7017487668
 C          5.8668374749        0.9128317262       -0.9523140336
 C          4.4369987288        0.7052739583       -0.8067450338
 C          3.8583692295        0.3805563431        0.4185765125
 C          2.4912095853        0.2206187782        0.5190792998
 C          1.6697457896        0.3667075015       -0.5966695227
 C          0.2163667824        0.1823791514       -0.4908117196
 C         -0.4974297150        0.7307561325        0.5721778356
 C         -1.8657979620        0.5749624745        0.6641568341
 C         -2.5579643813       -0.1473567051       -0.3062286929
 C         -3.9947057672       -0.3639465719       -0.2576788698
 N         -4.5597283409       -1.4908154658       -0.6129262301
 C         -5.8929648648       -1.3191516021       -0.4182271911
 C         -6.9325349103       -2.2704662323       -0.6144225830
 C         -6.6521764980       -3.5714057355       -1.0449989542
 C         -7.6650340329       -4.4853406656       -1.1940211792
 C         -8.9754043443       -4.1068682207       -0.9084586135
 C         -9.2628660061       -2.8286473523       -0.4901689137
 C         -8.2567014304       -1.8627620070       -0.3349018932
 C         -8.5311668941       -0.4950903453        0.0709628246
 C         -9.8415315597       -0.0374788755        0.2693976576
 C        -10.1161452328        1.2659472193        0.6090302900
 C         -9.0799037856        2.1832220445        0.7504274631
 C         -7.7812594995        1.7742670134        0.5730427498
 C         -7.4777557660        0.4429770176        0.2538113563
 C         -6.1508883276       -0.0332856589        0.0551890470
 N         -4.9172437943        0.5673104640        0.1668930205
 C         -4.6022783251        1.8665084282        0.6105695906
 C         -4.8667555872        2.2391900323        1.9252904932
 C         -4.5225803280        3.5058604201        2.3595891638
 C         -3.9100998969        4.3974422911        1.4932509825
 C         -3.6430020039        4.0225516917        0.1871506052
 C         -3.9871428804        2.7592023540       -0.2589173568
 C         -1.8412976748       -0.7249396394       -1.3550050239
 C         -0.4774486045       -0.5521893148       -1.4514781008
 C          2.2544743349        0.6991914109       -1.8180095427
 C          3.6175646729        0.8781765392       -1.9212386422
 N          6.8511549892        0.2084419111       -0.3009486892
 C          6.6892766863       -0.8735790171        0.5806105525
 C          7.2660995116       -0.8320302517        1.8450013312
 C          7.1033065796       -1.9040438154        2.7030931256
 C          6.3657290520       -3.0084911337        2.3086503393
 C          5.7890963594       -3.0440724214        1.0495566772
 C          5.9493107116       -1.9807948382        0.1804957049
 C          9.7086102151       -0.9361129384       -0.1380801390
 C         11.0075993418       -1.2669413726        0.2008510353
 H         12.9853241673       -0.5456424866        0.5855664521
 H         12.3939710366        1.8122670973        0.1562871708
 H         10.0695237174        2.4060901464       -0.4567456236
 H          4.4738625245        0.2706780925        1.2993293454
 H          2.0535872363       -0.0393738251        1.4717397299
 H          0.0252189757        1.3019559554        1.3255551946
 H         -2.3906884700        1.0001552791        1.5061600651
 H         -5.6227945999       -3.8251935366       -1.2447883073
 H         -7.4533270655       -5.4915552938       -1.5240757825
 H         -9.7752802321       -4.8251768125       -1.0158529318
 H        -10.2912039521       -2.5833882325       -0.2774975613
 H        -10.6703482401       -0.7151093767        0.1441899651
 H        -11.1390623064        1.5813221201        0.7525365739
 H         -9.2947472314        3.2132857775        0.9934854269
 H         -6.9834377338        2.4939858302        0.6638061458
 H         -5.3427557627        1.5345544408        2.5918452881
 H         -4.7300738396        3.7953715034        3.3787145693
 H         -3.6404910143        5.3842137670        1.8375045394
 H         -3.1660787405        4.7154838764       -0.4891371121
 H         -3.7823166876        2.4557838742       -1.2748901399
 H         -2.3787602725       -1.3064621158       -2.0877021668
 H          0.0657697156       -1.0066389314       -2.2670628629
 H          1.6274905996        0.8405962897       -2.6858740357
 H          4.0716501183        1.1560121197       -2.8593455624
 H          7.8377445799        0.0346119995        2.1427749437
 H          7.5526844261       -1.8735705366        3.6839212754
 H          6.2400327562       -3.8418667309        2.9827871041
 H          5.2144417675       -3.9033613390        0.7390389995
 H          5.5072794041       -1.9990978752       -0.8047185262
 H          8.9699149647       -1.7158821665       -0.2498225666
 H         11.2667395713       -2.3017166303        0.3693336441
  83
       -131.11857545
 C         11.9426219083       -0.0415395677       -0.5755333458
 C         11.7032663600       -0.1475543448        0.7853770839
 C         10.4223210118        0.0054997912        1.2782928866
 C          9.3615579438        0.2630368983        0.4103450791
 C          8.0350859890        0.4273561971        0.9786704271
 N          7.7976080428        0.9384140113        2.1613071721
 N          6.4802960588        0.9690884657        2.3534095403
 C          5.8910512830        0.4728640172        1.2929911905
 C          4.4550882777        0.3204766217        1.1584682477
 C          3.8688025714       -0.6969633175        0.4078060372
 C          2.4948668163       -0.7930583578        0.3218636262
 C          1.6662065787        0.1119964215        0.9832458881
 C          0.2064444859        0.0106336804        0.8725621419
 C         -0.4266002746       -1.2327740107        0.8490531018
 C         -1.7952462366       -1.3246694922        0.7275863250
 C         -2.5826529697       -0.1757530209        0.6171021432
 C         -4.0175891455       -0.3557513617        0.4884807491
 N         -4.6438950744       -1.3934865902        0.9893116380
 C         -5.9546512966       -1.2279579640        0.6822499898
 C         -7.0465544694       -2.0702804644        1.0329174176
 C         -6.8527057760       -3.2287713119        1.7922404054
 C         -7.9219526878       -4.0141314359        2.1434552571
 C         -9.2034992709       -3.6445097754        1.7402616416
 C         -9.4046931555       -2.5100012118        0.9893073900
 C         -8.3366887576       -1.6859244944        0.6024452973
 C         -8.5121051286       -0.4992414148       -0.2173828838
 C         -9.7695641590       -0.1321040558       -0.7171000697
 C         -9.9418498948        0.9653217823       -1.5269439472
 C         -8.8473407189        1.7436780989       -1.8889798639
 C         -7.5990865504        1.4231583484       -1.4153455774
 C         -7.4055743052        0.3234223477       -0.5670425989
 C         -6.1350412210       -0.0530757171       -0.0469864931
 N         -4.8814256868        0.5043227308       -0.1552793722
 C         -4.5148923906        1.7037408977       -0.7985644074
 C         -4.9220317130        2.9271630750       -0.2738143131
 C         -4.5340342809        4.1003644078       -0.8940337472
 C         -3.7396213929        4.0587630578       -2.0289941683
 C         -3.3343648891        2.8403958190       -2.5480807971
 C         -3.7193441844        1.6603133861       -1.9372626008
 C         -1.9568695747        1.0688774967        0.6720645144
 C         -0.5848699971        1.1551807620        0.7943063065
 C          2.2600718717        1.1107258629        1.7562836156
 C          3.6310844932        1.2127210273        1.8462551661
 N          6.8441490835        0.1071562646        0.3715606848
 C          6.6515602266       -0.4619017610       -0.8993725415
 C          7.2314414215       -1.6893876841       -1.2005210354
 C          7.0402991040       -2.2440645007       -2.4526068623
 C          6.2733660745       -1.5833773510       -3.3985560808
 C          5.6968177536       -0.3607655159       -3.0943617236
 C          5.8844297252        0.2064742961       -1.8474322887
 C          9.6111000340        0.3922416893       -0.9541529435
 C         10.8964964382        0.2357046297       -1.4393653391
 H         12.9436321517       -0.1650248864       -0.9611740190
 H         12.5184474957       -0.3502357732        1.4636796838
 H         10.2174158473       -0.0675962125        2.3346465480
 H          4.4815395751       -1.4271798711       -0.0984339685
 H          2.0573272599       -1.5737963951       -0.2827702735
 H          0.1623361645       -2.1325396367        0.9485155384
 H         -2.2873007821       -2.2844803851        0.7171890768
 H         -5.8452121061       -3.4728861355        2.0911014885
 H         -7.7775124628       -4.9088380917        2.7306509267
 H        -10.0495544125       -4.2554264379        2.0202574986
 H        -10.4148174950       -2.2633361485        0.7036290790
 H        -10.6364854669       -0.7244884669       -0.4738644507
 H        -10.9267570886        1.2161167329       -1.8923146512
 H         -8.9766397471        2.5936525316       -2.5423210338
 H         -6.7520878608        2.0199464872       -1.7133591940
 H         -5.5399892455        2.9455612540        0.6121607437
 H         -4.8495784977        5.0491647470       -0.4869830901
 H         -3.4366361690        4.9773397313       -2.5080026033
 H         -2.7170107958        2.8065703085       -3.4329412194
 H         -3.4067541079        0.7042883604       -2.3304619543
 H         -2.5371037664        1.9776016536        0.6392299164
 H         -0.1176711883        2.1288126525        0.8131646663
 H          1.6370526799        1.7982637605        2.3084172933
 H          4.0936908259        1.9766351211        2.4507875926
 H          7.8260951371       -2.1951804041       -0.4540901703
 H          7.4893973138       -3.1971737456       -2.6869834308
 H          6.1249874480       -2.0215369678       -4.3735890135
 H          5.1004718816        0.1566834752       -3.8304023477
 H          5.4401930447        1.1589256953       -1.5981060828
 H          8.8097469571        0.6341223518       -1.6361111118
 H         11.0811737441        0.3368800998       -2.4986368018
  83
       -131.11842465
 C         12.0373183336       -0.5133535367       -0.1285674439
 C         11.7309953278        0.6758797434        0.5139213460
 C         10.4286400195        1.1346846190        0.5399635521
 C          9.4136127051        0.4026373381       -0.0753082886
 C          8.0618307988        0.9323425616       -0.0325772871
 N          7.7684404618        2.2090528544       -0.0357428651
 N          6.4435432069        2.3385935087       -0.0232896696
 C          5.9045647195        1.1430951734       -0.0078874080
 C          4.4743274525        0.9068464109        0.0328740574
 C          3.9039356843       -0.2334618798        0.5961793219
 C          2.5331454442       -0.3953981759        0.5978301189
 C          1.6940357456        0.5810129434        0.0655913936
 C          0.2372972785        0.4011297130        0.0709025434
 C         -0.3341051372       -0.8197710043       -0.2875838942
 C         -1.7011630049       -0.9788811012       -0.2985648196
 C         -2.5519932403        0.0710107060        0.0650747633
 C         -3.9767182044       -0.2024576101        0.0391839086
 N         -4.4396090221       -1.4318902310        0.0097813699
 C         -5.7897460927       -1.3317030632       -0.0071975575
 C         -6.7439208609       -2.3874233399       -0.0272732632
 C         -6.3416632704       -3.7268620453       -0.0317975120
 C         -7.2766226355       -4.7315001484       -0.0412580250
 C         -8.6310952926       -4.4045552327       -0.0435246215
 C         -9.0374029544       -3.0905903485       -0.0407499177
 C         -8.1123829233       -2.0351703793       -0.0362853212
 C         -8.5093355396       -0.6374531444       -0.0561636137
 C         -9.8589014709       -0.2597711379       -0.0950244231
 C        -10.2480318042        1.0578378235       -0.1438628028
 C         -9.2910007761        2.0667756605       -0.1691813728
 C         -7.9579932380        1.7403985344       -0.1259152200
 C         -7.5397476713        0.4037885078       -0.0536728272
 C         -6.1731287793        0.0091111807        0.0043799800
 N         -4.9978807983        0.7240878118        0.0405294647
 C         -4.8645738582        2.1291469824        0.0609708953
 C         -5.1082518624        2.8296380125        1.2391103660
 C         -4.9701154274        4.2053389567        1.2572036389
 C         -4.5898814952        4.8820614801        0.1088856335
 C         -4.3482730150        4.1826686559       -1.0620707271
 C         -4.4838530151        2.8060232551       -1.0917721529
 C         -1.9793760605        1.2824605801        0.4525410474
 C         -0.6081870594        1.4436779037        0.4406594953
 C          2.2681366190        1.7365652128       -0.4638461903
 C          3.6364097952        1.8957275167       -0.4862968158
 N          6.9012508394        0.1956428503       -0.0139948958
 C          6.7835598451       -1.2052117899        0.0133823626
 C          7.3701023851       -1.9221255361        1.0505192394
 C          7.2616061586       -3.3004339697        1.0730336653
 C          6.5704201268       -3.9617508635        0.0709222224
 C          5.9867879743       -3.2437285208       -0.9605365102
 C          6.0922295010       -1.8654507225       -0.9966882613
 C          9.7303636337       -0.7805011780       -0.7395269279
 C         11.0366984356       -1.2331962421       -0.7595621938
 H         13.0548701361       -0.8741004402       -0.1452200277
 H         12.5105938995        1.2466718725        0.9959632501
 H         10.1722160777        2.0610441777        1.0294073205
 H          4.5246687419       -0.9889964919        1.0527825070
 H          2.1025570812       -1.2796680466        1.0443955985
 H          0.3050859503       -1.6391510350       -0.5827855613
 H         -2.1479177501       -1.9177209494       -0.5844042908
 H         -5.2832111969       -3.9354507457       -0.0249056928
 H         -6.9708966021       -5.7672543529       -0.0454151957
 H         -9.3715431199       -5.1914279714       -0.0485317986
 H        -10.0964254759       -2.8875997312       -0.0418371418
 H        -10.6272594658       -1.0156330309       -0.0896792474
 H        -11.2980327848        1.3090308526       -0.1719691700
 H         -9.5930277843        3.1021395300       -0.2244026969
 H         -7.2219691542        2.5272764377       -0.1566338387
 H         -5.4059587199        2.2890890391        2.1257293963
 H         -5.1597290611        4.7494195549        2.1701977671
 H         -4.4825391133        5.9558795576        0.1277079374
 H         -4.0534242635        4.7095930185       -1.9568579379
 H         -4.2963367629        2.2486922825       -1.9974886464
 H         -2.5932208588        2.1037859853        0.7839871340
 H         -0.1830693914        2.3868668911        0.7519104612
 H          1.6315527154        2.5027075610       -0.8811495853
 H          4.0873247978        2.7832292358       -0.9010322109
 H          7.9063112791       -1.3948750639        1.8258030520
 H          7.7164686958       -3.8572751554        1.8780566735
 H          6.4870407159       -5.0375029216        0.0933509726
 H          5.4492909876       -3.7574017750       -1.7430653956
 H          5.6411795139       -1.2945035967       -1.7949620065
 H          8.9651152632       -1.3378657702       -1.2587317552
 H         11.2737109044       -2.1510052004       -1.2771987766
