63
 energy: -106.205710024209 gnorm: 0.000170023671 xtb: 6.7.1 (edcfbbe)
N            2.03088480770643        3.61951557449045       -0.76550913227585
C            1.59593185123428        2.61852976872075       -0.41066766727973
C            1.01638768093186        1.38110697453167       -0.05108753256898
C           -0.36961883119102        1.25958820086989       -0.11553712451128
C           -0.97881874942937        0.03111929671327        0.10198520657176
C           -2.43912756985164       -0.08487155656282        0.04257878308774
N           -3.13624860463547        1.01093083846868       -0.23683790952584
C           -4.46073680468566        0.86101798058612       -0.28064957398144
C           -5.27534308698910        2.03395262498176       -0.59052292025377
C           -4.66791898815838        3.25281830427367       -0.89288287401138
C           -5.44226715277935        4.35859991095626       -1.18666433695326
C           -6.82561790795474        4.26038254296269       -1.18104055001121
C           -7.43566139697498        3.05163564642834       -0.88056925429389
C           -6.66728720687730        1.94177908328826       -0.58697346087889
N           -5.08151108467290       -0.29387161335463       -0.05653679644529
C           -4.30528484334993       -1.33801665867341        0.22040198787972
C           -4.94587673605903       -2.62446870534222        0.48452056705531
C           -6.33274918429587       -2.74882431503613        0.40000090022214
C           -6.93586454533936       -3.96501498731381        0.65617175597290
C           -6.16444516898715       -5.06596119630155        0.99734462403066
C           -4.78510441065873       -4.94916954971948        1.08190529284238
C           -4.17549209992964       -3.73599069721972        0.82685542080584
N           -2.97407239848381       -1.27765299411210        0.27606078288258
C           -0.18668202360135       -1.09147732521393        0.35525714021152
C            1.18459633995025       -0.97958781984131        0.43176982963779
C            1.80454070371000        0.25711383278572        0.26099807004256
N            3.18896465952765        0.35077185514870        0.36612267852066
C            3.95224772677792        1.35209704147458        0.97640195464631
C            3.57359778612708        2.41820743969617        1.77095691501932
C            4.57619365860903        3.22775846573953        2.28261501460142
C            5.91733519516202        2.97470127432592        2.02661805389876
C            6.31192033479027        1.88174344761204        1.27126051274426
C            5.31853619022431        1.06943989014845        0.75884628965526
N            5.35969189055942       -0.10369095139075        0.03440489548528
C            6.18133607135977       -1.03601533512459       -0.56107365712857
C            7.55234593896086       -1.15333078782590       -0.69213546839883
C            8.02758809313528       -2.26045818989271       -1.37139624183688
C            7.16251876430649       -3.21655598382685       -1.90126829281648
C            5.79107517704466       -3.10612173610971       -1.77642691512954
C            5.28812599386158       -2.00350187933609       -1.09967676197630
N            3.97264501453280       -1.66379659444898       -0.83600329877901
C            4.06959440288503       -0.54817476977162       -0.17504561904191
H           -0.97748245461477        2.11977093600249       -0.34936419214395
H           -3.59072027725819        3.31217513334113       -0.89436785710178
H           -4.96733031663673        5.29958408075431       -1.42137952499213
H           -7.42825974801037        5.12629937809369       -1.41142509864275
H           -8.51278708894677        2.97610994561889       -0.87602252818603
H           -7.12417384576889        0.99382167533299       -0.34989707655119
H           -6.91663019587738       -1.88232205770696        0.13205729579270
H           -8.00970500688048       -4.05675138651905        0.58987905788792
H           -6.63838257272906       -6.01538687424149        1.19768667780891
H           -4.18496076657719       -5.80665317599829        1.34750138542956
H           -3.10410190792384       -3.62735984413608        0.88907683350177
H           -0.66954119560471       -2.04465305941503        0.49768891067824
H            1.80081051809167       -1.84454347951398        0.61917127153528
H            2.53779210081664        2.61512399580186        1.99650846187941
H            4.30237876952160        4.07037773817406        2.89762946420282
H            6.66878970553374        3.63032552826642        2.43748137874824
H            7.35307325522942        1.66508209260657        1.09688553651043
H            8.22330808321151       -0.41407582773648       -0.28349521641023
H            9.09264968871436       -2.38669209025617       -1.49412362409156
H            7.57823617777709       -4.06520498000185       -2.42389568743784
H            5.12149093935512       -3.84439145798095       -2.18802077871755
