  63
       -106.15620937
 N          1.9925975908        3.6746793077       -0.6822808736
 C          1.5760941096        2.6556074560       -0.3598125865
 C          1.0092352779        1.4032939963       -0.0338325388
 C         -0.3768843891        1.2789411254       -0.0919249257
 C         -0.9799666695        0.0429135080        0.0932139234
 C         -2.4389467529       -0.0755084063        0.0436484017
 N         -3.1396934252        1.0158136729       -0.2415051113
 C         -4.4622429403        0.8625253100       -0.2774922804
 C         -5.2804855465        2.0325754011       -0.5893921137
 C         -4.6744632414        3.2514461227       -0.8908184520
 C         -5.4508545925        4.3548773647       -1.1864680787
 C         -6.8336784553        4.2527621444       -1.1835594558
 C         -7.4412533014        3.0428464843       -0.8835383294
 C         -6.6711969140        1.9350966213       -0.5875402814
 N         -5.0796798893       -0.2917729698       -0.0461261001
 C         -4.2998955798       -1.3308301820        0.2346167580
 C         -4.9354063611       -2.6201525397        0.4975175237
 C         -6.3158335361       -2.7604407114        0.3663141145
 C         -6.9127152924       -3.9814067278        0.6130188432
 C         -6.1410862309       -5.0686116207        0.9931593335
 C         -4.7676575908       -4.9336876783        1.1264139959
 C         -4.1638500265       -3.7163965335        0.8793344180
 N         -2.9705960918       -1.2665229626        0.2902980297
 C         -0.1839564422       -1.0849297221        0.3032569114
 C          1.1872575287       -0.9708168338        0.3731677135
 C          1.8012062839        0.2732251681        0.2404665509
 N          3.1863468894        0.3639596980        0.3443711815
 C          3.9516279507        1.3557260652        0.9612114871
 C          3.5783700759        2.4205515244        1.7596993680
 C          4.5840679222        3.2224670872        2.2760560458
 C          5.9242536297        2.9637908052        2.0228496862
 C          6.3141228455        1.8706963026        1.2658136007
 C          5.3181233752        1.0657070663        0.7486855378
 N          5.3559382374       -0.1050282739        0.0251611236
 C          6.1749874666       -1.0443431817       -0.5587539833
 C          7.5456031556       -1.1707480397       -0.6788879617
 C          8.0188395738       -2.2827764233       -1.3506787544
 C          7.1514903452       -3.2347402131       -1.8835951008
 C          5.7804304283       -3.1161935027       -1.7684999592
 C          5.2790246535       -2.0088335463       -1.0995546836
 N          3.9661250602       -1.6611287544       -0.8454640534
 C          4.0626473197       -0.5425070509       -0.1906860327
 H         -0.9893547173        2.1434175931       -0.2961083534
 H         -3.5975090698        3.3125314663       -0.8914625476
 H         -4.9793469681        5.2988404981       -1.4199038430
 H         -7.4382638652        5.1179462914       -1.4137461688
 H         -8.5182855041        2.9676689621       -0.8791004629
 H         -7.1262421859        0.9856537040       -0.3518055751
 H         -6.9005525891       -1.9035743789        0.0699846803
 H         -7.9831004492       -4.0891504419        0.5117810603
 H         -6.6106960776       -6.0221237437        1.1863882227
 H         -4.1692469813       -5.7823663537        1.4234024393
 H         -3.0969122515       -3.5932521097        0.9788258247
 H         -0.6641542059       -2.0437231754        0.4159185470
 H          1.8096119678       -1.8382725271        0.5249498961
 H          2.5444229240        2.6233836078        1.9865112033
 H          4.3143836137        4.0647634528        2.8935807127
 H          6.6780604184        3.6149155937        2.4370951448
 H          7.3547752579        1.6480602707        1.0937738270
 H          8.2181931031       -0.4338843029       -0.2676876423
 H          9.0840091028       -2.4166624882       -1.4647118947
 H          7.5669076630       -4.0873088899       -2.3999929306
 H          5.1100528454       -3.8521481676       -2.1814483650
