63
 energy: -106.127043560128 gnorm: 0.000044152925 xtb: 6.7.1 (edcfbbe)
N            2.11662805700683        3.52573635754350       -0.85956386057343
C            1.63243519724519        2.54516323092486       -0.50599276886344
C            1.02392365928937        1.33458879329494       -0.11874161486652
C           -0.35196505787645        1.22491202765811       -0.18494960739019
C           -0.99440559279279        0.00383464709474        0.08884905495389
C           -2.40640150068302       -0.09470790432296        0.03451779146841
N           -3.15258562689926        0.99435175572360       -0.27816153563947
C           -4.45504594864009        0.87899538382410       -0.30568242894436
C           -5.26458562814133        2.05135398329009       -0.62242471150630
C           -4.65513824257620        3.26999262124217       -0.92583031381570
C           -5.42669581841794        4.37594349361388       -1.22212808995840
C           -6.81092535729354        4.28177036861675       -1.21949651300091
C           -7.42273285944844        3.07427029931603       -0.91850222617947
C           -6.65726523417240        1.96350518339529       -0.62179562950155
N           -5.09270960547724       -0.28061075153091       -0.05564388349226
C           -4.32052580861227       -1.34197754779299        0.24322457749816
C           -4.98055969680726       -2.61386086385714        0.52045883568779
C           -4.22931116578625       -3.73665536935869        0.87174075042848
C           -4.85892920136757       -4.93663569208092        1.13586540331443
C           -6.24052916275224       -5.03272853781294        1.05237964078948
C           -6.99258647953182       -3.92138712549741        0.70266141493820
C           -6.36952977979696       -2.71751850619083        0.43714844109449
N           -3.01557814633728       -1.27650290658451        0.30235063594849
C           -0.18688799574880       -1.12352790843495        0.39816182797883
C            1.17540915094066       -1.01472802427469        0.47237584026824
C            1.80881254474140        0.21232061679367        0.24764358661647
N            3.20317355402740        0.31633382973108        0.34824607094440
C            3.93299440302224        1.28457335737129        1.02622280162198
C            3.51592486528934        2.32388052328706        1.84403275638664
C            4.49197830182331        3.12532137851598        2.40785826271413
C            5.84672494398426        2.89767827893172        2.17833871552229
C            6.28014270412854        1.84237270267832        1.39224867862709
C            5.31279745370957        1.03418581453914        0.82581434098256
N            5.38030304933934       -0.09762578629814        0.04396487189771
C            6.22430586183823       -0.99507288447436       -0.57941416256880
C            7.59433308221260       -1.10544885916276       -0.67762219914251
C            8.09071966354221       -2.17849405620861       -1.40596004985992
C            7.24405934063598       -3.10446265492116       -2.01342393799802
C            5.86980691408998       -3.00169643899686       -1.92195513634487
C            5.34396266165768       -1.93453374075574       -1.19765176571017
N            4.03125170998172       -1.61467647189388       -0.95866915796273
C            4.09768929136316       -0.52792320878547       -0.22751177398218
H           -0.95023970246136        2.07779640991391       -0.46726725728284
H           -3.57734240408505        3.32837491168660       -0.92466518294684
H           -4.94888055308947        5.31575284277874       -1.45648125127739
H           -7.41113940150820        5.14880760381477       -1.45161159384444
H           -8.50011238652215        2.99996077972789       -0.91578587400463
H           -7.11747280217359        1.01670527588340       -0.38454488571235
H           -3.15565839997920       -3.64582452429103        0.93310717159781
H           -4.27247404426931       -5.80175572358014        1.40781771749986
H           -6.72975227978266       -5.97276670098593        1.25979875884850
H           -8.06800553096989       -3.99489575879820        0.63660482843959
H           -6.93998704965362       -1.84364937261484        0.16253742715299
H           -0.67716631354044       -2.06609983029339        0.57903749257612
H            1.78639199661732       -1.87198038357437        0.71015228308282
H            2.46986263086628        2.49740697131191        2.03860061283304
H            4.19403807475202        3.94357868980251        3.04403252601851
H            6.57585951841299        3.54950036972188        2.63298788904533
H            7.32904240216927        1.65391100293444        1.23291307296589
H            8.25535289461687       -0.39236326074504       -0.21138649784661
H            9.15892423230223       -2.29659322635884       -1.50338269382762
H            7.67667500393717       -3.92207308905198       -2.56963759287869
H            5.21095027347531       -3.71439318318203       -2.39086134198621
