63
 energy: -106.206042706301 gnorm: 0.000115079074 xtb: 6.7.1 (edcfbbe)
N            2.62930466089460        2.84827862673955        1.33508347735392
C            2.07240955898568        1.93643431226319        0.91721771560644
C            1.32185439258633        0.80445099853654        0.52542342086601
C           -0.06167178671201        0.91273310894915        0.43024059758544
C           -0.83597427037543       -0.20946476558764        0.16161339911973
C           -2.29363675912998       -0.08879655961512        0.05669668953734
N           -2.83287184599278        1.10589398111002        0.27002775311022
C           -4.16150528328487        1.16914566056346        0.17303055740019
C           -4.80835341219811        2.45624070805383        0.41758312765358
C           -6.19445352719421        2.57575379923078        0.31370122731533
C           -6.80466643202143        3.79193844285883        0.55199464497737
C           -6.04114105154336        4.89805329630820        0.89425060055715
C           -4.66261387925603        4.78632687759484        0.99762448320676
C           -4.04595548931345        3.57288365466338        0.76116526732145
N           -4.93039479683419        0.12674246633642       -0.12993852455785
C           -4.30543492429800       -1.02928303867000       -0.33446210114911
C           -5.11162608117400       -2.19884262612081       -0.67714727366662
C           -6.50188308154224       -2.09997508678351       -0.73535442276189
C           -7.26179494386967       -3.20630696678040       -1.06262356204784
C           -6.64483232046958       -4.41796340474872       -1.33600359689448
C           -5.26311890425866       -4.52291780139908       -1.27950497960445
C           -4.49724327770706       -3.42072626037984       -0.95215947006773
N           -2.98351718071891       -1.18320367633426       -0.24395617916118
C           -0.21552549923599       -1.44934306317979       -0.00238889141930
C            1.15642533594807       -1.56497571687295        0.08020757244484
C            1.94251755499351       -0.44352133579834        0.33388414753221
N            3.33130378920140       -0.53611613949855        0.37505717512089
C            4.12188697988239       -1.48510622054839        1.02822429195481
C            3.77130375285784       -2.54411674906388        1.84496285670672
C            4.79682388123746       -3.30597378416877        2.38496367173639
C            6.13058148612396       -3.01678321348407        2.12755782231606
C            6.49445690339895       -1.94226185460510        1.33068414801676
C            5.47952211828129       -1.17746387559380        0.78744713449983
N            5.48583808093088       -0.05304972723762       -0.01120940805592
C            6.27403017282668        0.82161279000532       -0.72804800855526
C            7.63947674408406        0.95999949999112       -0.89041977747166
C            8.07595089922464        1.98281312795176       -1.71306605659071
C            7.17810843753017        2.83768711102203       -2.34999346536846
C            5.81167424803724        2.70560783533081       -2.19402822464491
C            5.34734042367979        1.68612576294302       -1.37505396668239
N            4.04479725259200        1.33847917419841       -1.06418409293462
C            4.18185814290510        0.33020168198273       -0.25690107916081
H           -0.54214054548901        1.86779362539166        0.57422592928003
H           -6.77218172910150        1.70524870120103        0.04548871063989
H           -7.87780052039919        3.87971338250264        0.47083482185625
H           -6.52019301875835        5.84779368129181        1.08024352971866
H           -4.06797665253001        5.64746522868791        1.26376464138072
H           -2.97485735726330        3.46946130373463        0.83891446696445
H           -6.96434410407756       -1.14967474819692       -0.51946302462534
H           -8.33766454579874       -3.12550590287438       -1.10614884225256
H           -7.24106330208738       -5.28092268188132       -1.59269034068312
H           -4.78352266091091       -5.46664277400810       -1.49278927383718
H           -3.42145996321721       -3.48388451515514       -0.90588022519363
H           -0.82879342611395       -2.31179385917849       -0.20852798793454
H            1.63314425427321       -2.52004085942749       -0.07718703858364
H            2.73924481799851       -2.76513572275027        2.06499148357334
H            4.54852925403363       -4.13986241923041        3.02259043503027
H            6.90096273986372       -3.63349747065435        2.56308855873451
H            7.52930771985964       -1.70647179259365        1.14385718080883
H            8.33640753669303        0.30052604653781       -0.39698059414764
H            9.13568275130310        2.12266470338587       -1.86386255007715
H            7.56342164675589        3.62421011621730       -2.98171920802731
H            5.11604503590924        3.36734890685176       -2.68495037376859
