63
 energy: -106.127046212252 gnorm: 0.000131573091 xtb: 6.7.1 (edcfbbe)
N            2.11299748861183        3.51598639204527       -0.88878315314382
C            1.63140999628089        2.53713976858935       -0.52704881750065
C            1.02537523571304        1.32857074382810       -0.12966170168748
C           -0.35049861571820        1.21705783104202       -0.19195931460812
C           -0.99117560383762       -0.00282563026054        0.09116070664988
C           -2.40322494213113       -0.10223893942924        0.03968056121197
N           -3.14966033788940        0.98549516762740       -0.27699189171624
C           -4.45214569574098        0.87031133743621       -0.30272966408584
C           -5.26158540679190        2.04217550412317       -0.62153603650470
C           -4.65184046012161        3.26063631251130       -0.92510855758198
C           -5.42307329010762        4.36661468566713       -1.22208542708902
C           -6.80731397248140        4.27260179032314       -1.22012815262037
C           -7.41941543081264        3.06521207481022       -0.91928847540785
C           -6.65426135251346        1.95443200981844       -0.62178553074219
N           -5.08959711256931       -0.28845166788769       -0.04844542380664
C           -4.31722165569349       -1.34839819471239        0.25504250620421
C           -4.97741627930162       -2.61906196903586        0.53749324940977
C           -6.36612067819649       -2.72368518931287        0.45074934295178
C           -6.98956600676495       -3.92629471946631        0.72096572652054
C           -6.23816908824546       -5.03541311811507        1.07906574825780
C           -4.85684623424254       -4.93836773635636        1.16598748478721
C           -4.22681755758565       -3.73966745287627        0.89701571054943
N           -3.01224608528078       -1.28261257227735        0.31399762160091
C           -0.18190759905531       -1.12730094671394        0.40632803838554
C            1.18047051044498       -1.01657713884233        0.47701325468057
C            1.81218370783746        0.20950262060574        0.24246871465212
N            3.20663042690802        0.31607985966182        0.33869045658190
C            3.93628912753210        1.29184230907764        1.00599193256033
C            3.51935291692198        2.33557199458191        1.81822581583244
C            4.49522392376979        3.14393311208195        2.37238159277716
C            5.84970057787395        2.91903484836180        2.13858971714340
C            6.28315367638475        1.85966311255401        1.35801147019508
C            5.31599672764928        1.04433190725427        0.80157293908644
N            5.38372126813707       -0.09327065142151        0.02823302426308
C            6.22803181827269       -0.99360173394348       -0.59047941046708
C            7.59799693694786       -1.10004701146090       -0.69379310743907
C            8.09497787145050       -2.17879287079469       -1.41324582524191
C            7.24890495954782       -3.11393985818387       -2.00734646277399
C            5.87468468240695       -3.01466751416756       -1.91141972279416
C            5.34824335641566       -1.94189940646635       -1.19586052152139
N            4.03548122921570       -1.62398268453799       -0.95446528207681
C            4.10137663281042       -0.53018248796141       -0.23384179161921
H           -0.95027744515711        2.06740182782820       -0.47868709279707
H           -3.57404249151958        3.31893189847302       -0.92323314451945
H           -4.94499243160964        5.30630365054078       -1.45638752832769
H           -7.40729386113514        5.13969911044311       -1.45261569286735
H           -8.49680568498527        2.99104758728559       -0.91714899584741
H           -7.11472676522444        1.00777316614944       -0.38446384889911
H           -6.93605792783442       -1.85155027927236        0.16961931409823
H           -8.06475052823374       -4.00055773497579        0.65197017246356
H           -6.72769214770553       -5.97446319909151        1.29023218295341
H           -4.27090448881213       -5.80173447824619        1.44453345868047
H           -3.15337375802722       -3.64817915890338        0.96103665024707
H           -0.67082819069298       -2.06910148212186        0.59474598680750
H            1.79289317194768       -1.87151545894343        0.71935118878597
H            2.47357780697815        2.50700497641251        2.01619697061680
H            4.19736338552696        3.96543065385839        3.00438982591813
H            6.57866632156570        3.57634299557466        2.58554060669512
H            7.33196814306487        1.67343556208631        1.19553623116849
H            8.25848174107409       -0.37989223739020       -0.23778156593304
H            9.16316235628437       -2.29409885201418       -1.51426204353054
H            7.68195859182486       -3.93589131989055       -2.55678671069309
H            5.21634275096007       -3.73435709768502       -2.37026202049793
