  111
       -152.28859326
 C          8.2799092074        1.2427187692       -1.4028547968
 C          7.3784739895        0.1396636572       -1.9642203104
 C          8.0297421107       -1.2149464914       -1.6503193172
 C          7.2798036869        0.3293269867       -3.4848523640
 C          5.9799019361        0.1671143840       -1.3691912095
 C          5.0516653412       -0.7981977799       -1.7818145776
 C          3.7639575497       -0.8550099272       -1.2915616092
 C          3.3870084716        0.0785717373       -0.3370725982
 C          4.2928360658        1.0816575705        0.0712618119
 C          5.5801207037        1.1199469175       -0.4413959899
 C          3.5820608234        1.9083575357        1.0109563695
 C          3.9421734944        3.0260542997        1.7467565962
 C          3.0228923217        3.6086829817        2.6088443645
 C          3.3472568290        4.8413165781        3.4382334919
 C          3.2179990323        4.4942330207        4.9284741031
 C          2.3616899401        5.9623401358        3.0770505758
 C          4.7669456907        5.3596473060        3.1915960773
 C          1.7524471409        3.0287825495        2.7231287702
 C          1.3673313651        1.9165871798        2.0023172689
 C          2.2844614426        1.3607500426        1.1215254971
 N          2.1787597489        0.2598731974        0.2992014930
 C          1.0619752156       -0.5775996106        0.1815416354
 C          1.2276974099       -1.9474524355        0.3059339314
 C          0.1199055545       -2.8093245393        0.2220581252
 C          0.2113014081       -4.2465876376        0.3984658178
 O         -0.7775551932       -4.9278894506        0.7782143827
 C          1.4806699842       -4.9147260134        0.1366759889
 C          1.8018926993       -6.1296635275        0.7756099838
 C          2.9937300466       -6.7593370552        0.4968699291
 C          3.8471847000       -6.1812280685       -0.4394971962
 N          3.5208723676       -5.0706532757       -1.0844694678
 C          2.3947087100       -4.4564436413       -0.8317570427
 C         -1.1564577409       -2.2371271298        0.0668821635
 C         -1.3118688146       -0.8680443291       -0.0439220595
 N         -2.5929467538       -0.3368242643       -0.2325594632
 C         -3.7180500557       -0.6865819301        0.4814714376
 C         -3.8588615466       -1.5350267596        1.5711261705
 C         -5.1183151993       -1.6842263695        2.1139706290
 C         -6.2453933130       -1.0123135747        1.6214405458
 C         -7.5919929002       -1.2558905111        2.2835198595
 C         -8.7217875566       -0.4507716499        1.6353863468
 C         -7.9414055874       -2.7467823635        2.1692296427
 C         -7.5063365389       -0.8535524404        3.7630025372
 C         -6.0861636009       -0.1444972176        0.5489591235
 C         -4.8325198437        0.0223729838       -0.0178320607
 C         -4.3435666627        0.8327903250       -1.1026929604
 C         -4.9592496685        1.7135976141       -1.9772734013
 C         -4.2098999992        2.3412381660       -2.9638621216
 C         -4.8187389247        3.3211927346       -3.9543313426
 C         -4.1098177439        4.6768015979       -3.8189019327
 C         -4.6342439978        2.7768521811       -5.3783999867
 C         -6.3156848467        3.5419906992       -3.7193858700
 C         -2.8427884638        2.0478748171       -3.0544877300
 C         -2.2041356841        1.1759009142       -2.1965399141
 C         -2.9577321320        0.5749654875       -1.1978367565
 C         -0.2037975660       -0.0191119466       -0.0037303283
 H          9.2676227847        1.1667422905       -1.8526124943
 H          8.3935454914        1.1444367227       -0.3256315120
 H          7.8829182873        2.2288957619       -1.6326237682
 H          7.4629395908       -2.0376675130       -2.0762974569
 H          8.0874241554       -1.3632258438       -0.5740124605
 H          9.0376380476       -1.2484601349       -2.0581273764
 H          8.2738568431        0.3332644181       -3.9264952284
 H          6.7054463222       -0.4681057613       -3.9476638561
 H          6.7956691262        1.2762585041       -3.7151893725
 H          5.3410987070       -1.5334674677       -2.5154262173
 H          3.0735391311       -1.6002662835       -1.6502205570
 H          6.2476101747        1.8963561184       -0.1080637430
 H          4.9383823536        3.4191683226        1.6358410124
 H          2.2071726735        4.1840679066        5.1784737064
 H          3.8963710594        3.6831941253        5.1855708376
 H          3.4685538434        5.3603516802        5.5372280388
 H          2.4314030991        6.1966746374        2.0166989013
 H          1.3363464798        5.6770926522        3.2956111474
 H          2.5928641321        6.8608335259        3.6450556397
 H          4.9397085498        6.2447852221        3.8002091390
 H          4.9071704660        5.6371263978        2.1492314917
 H          5.5098232679        4.6145173286        3.4670680113
 H          1.0348202133        3.4583036558        3.4048420334
 H          0.3859111405        1.4880973226        2.1359391764
 H          2.2050022292       -2.3391991772        0.5344573857
 H          1.1045599746       -6.5439435709        1.4871291760
 H          3.2651129971       -7.6820780961        0.9861097913
 H          4.7987546966       -6.6206958822       -0.6991053123
 H          2.1702263112       -3.5960712249       -1.4438450440
 H         -2.0078094166       -2.8941945267        0.0020405940
 H         -3.0143194530       -2.0631309095        1.9846049739
 H         -5.2262677503       -2.3502792601        2.9551925281
 H         -9.6582036932       -0.6666166092        2.1453949520
 H         -8.8417371805       -0.7178404734        0.5879605595
 H         -8.5367135849        0.6181495280        1.7136516899
 H         -7.9879365571       -3.0426095001        1.1232343924
 H         -7.2007215039       -3.3677524899        2.6647632566
 H         -8.9092559314       -2.9402213883        2.6265323953
 H         -8.4692592730       -1.0019384925        4.2468044245
 H         -7.2328665927        0.1959212634        3.8521217370
 H         -6.7652888567       -1.4446832117        4.2934796975
 H         -6.9165321781        0.4077970191        0.1430534923
 H         -6.0166256044        1.8892852041       -1.8759294181
 H         -3.0503542730        4.5965806384       -4.0459047482
 H         -4.2130258564        5.0550577643       -2.8038087023
 H         -4.5499434785        5.3990332489       -4.5029507212
 H         -5.0836164571        3.4559969963       -6.0996590952
 H         -3.5830194942        2.6630880755       -5.6281348759
 H         -5.1137884868        1.8048102876       -5.4739924063
 H         -6.5010838441        3.9467858642       -2.7269669844
 H         -6.6950916140        4.2549204800       -4.4484550324
 H         -6.8720224162        2.6149503748       -3.8377804238
 H         -2.2525572762        2.5132841183       -3.8285307153
 H         -1.1536973876        0.9590817459       -2.3151892537
 H         -0.3239572374        1.0468406937       -0.0946027108
