  72
       -119.22451104
 C         -3.5539546197        4.9838644452       -0.7352401578
 C         -2.7245670638        3.7752407958       -0.4301810021
 C         -1.3428827015        3.8586096775       -0.3212070465
 C         -0.5855227574        2.7501673891       -0.0046698997
 C         -1.1851437551        1.5113455799        0.2296947158
 C         -2.5686355716        1.4052570346        0.0645343186
 C         -3.3113037617        2.5324926628       -0.2523002235
 C         -3.2742911790        0.0730157764        0.1156151621
 C         -4.6101608469        0.1624932224        0.8221300801
 C         -4.8572936337        0.5008348516        2.1341867732
 C         -6.1725497572        0.5097301252        2.5794014693
 C         -7.2136922811        0.1835412372        1.7235606316
 C         -6.9693254594       -0.1581580485        0.4027571245
 C         -5.6595450175       -0.1677303910       -0.0472748200
 C         -5.0971371285       -0.4736352699       -1.3540951662
 C         -5.7029227409       -0.8432735960       -2.5432699401
 C         -4.9044743024       -1.0631782109       -3.6544387547
 C         -3.5282455258       -0.9121089704       -3.5830143957
 C         -2.9156200617       -0.5418092466       -2.3931931845
 C         -3.7046831463       -0.3300633651       -1.2848999566
 C         -2.4128779629       -1.0039592444        0.7251978465
 C         -2.9919987695       -2.2097383997        1.0866561339
 C         -2.2560128276       -3.2374373782        1.6583376785
 C         -2.9210199500       -4.5244358897        2.0379487472
 C         -0.9044459318       -3.0196855973        1.8875026376
 C         -0.3088177814       -1.8262189827        1.5351263041
 C         -1.0446402454       -0.8113906821        0.9202622321
 N         -0.4270067385        0.3881813925        0.5657259902
 C          0.9754829566        0.4478448311        0.5995848912
 C          1.6313514766        1.2945189088        1.4808186884
 C          3.0252938610        1.4010522503        1.5499789208
 C          3.7821996758        0.6292251955        0.6984148510
 C          3.1203793770       -0.2425708315       -0.1994461058
 C          4.0246120032       -0.9668787799       -1.0105979930
 C          3.5318145468       -1.8488139965       -1.9410533169
 C          2.1373861524       -1.9869420208       -2.0465512131
 C          1.2569042131       -1.2858830875       -1.2553275522
 C          1.7329935972       -0.3759360241       -0.2856408644
 C          5.3539939182       -0.5432424205       -0.6099143130
 N          6.4968467377       -0.9415503921       -1.0818003131
 C          7.5414999488       -0.3325815312       -0.4771418112
 N          8.8298700197       -0.4826467905       -0.6900056178
 O          9.4378673559        0.3444832271        0.1618139735
 N          8.5971474508        1.0378159769        0.9326828579
 C          7.3892200793        0.6561651567        0.5789717529
 N          6.1911880517        1.0577537639        1.0548978233
 C          5.1984449199        0.4592960180        0.4617477980
 H         -3.8303728080        5.4897735075        0.1906607580
 H         -4.4691286772        4.7047459850       -1.2519222940
 H         -2.9998245197        5.6889779299       -1.3505356966
 H         -0.8467209946        4.8027185133       -0.4921868410
 H          0.4873025098        2.8505460024        0.0441183684
 H         -4.3799855698        2.4279978095       -0.3748906321
 H         -4.0454059509        0.7532121304        2.8007254303
 H         -6.3872437539        0.7730937523        3.6045612558
 H         -8.2290165060        0.1958242681        2.0922432454
 H         -7.7836228293       -0.4120913530       -0.2596050779
 H         -6.7751062785       -0.9561913507       -2.6055634267
 H         -5.3599273839       -1.3521425605       -4.5903881817
 H         -2.9258352685       -1.0821396613       -4.4632745383
 H         -1.8435713614       -0.4139554816       -2.3441011654
 H         -4.0499398700       -2.3494504840        0.9162222895
 H         -3.4899797448       -4.9222501786        1.1992510055
 H         -3.6155802593       -4.3602856469        2.8617661106
 H         -2.1877846610       -5.2646577277        2.3475992139
 H         -0.3065970537       -3.7878124436        2.3556542247
 H          0.7391379079       -1.6776704937        1.7465349390
 H          1.0319455315        1.8851690475        2.1588070347
 H          3.4880047674        2.0645466810        2.2632153618
 H          4.1921332348       -2.4189589785       -2.5751081039
 H          1.7441032778       -2.6744146391       -2.7808783202
 H          0.1940327033       -1.4366918272       -1.3724828690
