72
 energy: -119.193629049998 gnorm: 0.000125130732 xtb: 6.7.1 (edcfbbe)
C           -3.32710568558309        4.93037877837562       -0.97103071080811
C           -2.56405851502804        3.69760260165008       -0.59968271545784
C           -1.17736371127500        3.72085887377321       -0.49150419313032
C           -0.47156199450937        2.58536845354126       -0.15990123487972
C           -1.13106905106881        1.37678745602544        0.08564839825763
C           -2.52146169549185        1.33492466004316       -0.05398784906007
C           -3.21108847639556        2.49048049104227       -0.38729231475501
C           -3.29961487287080        0.05409114591907        0.10546662038152
C           -4.45758026934471        0.23437291194137        1.06850480333403
C           -4.40785759934816        0.55265010817040        2.40718171089233
C           -5.60311419968194        0.66781740283615        3.10472603686079
C           -6.81837912224778        0.46626792352834        2.46836316733108
C           -6.87216195200730        0.14510128275689        1.12125085070070
C           -5.68342776859582        0.02926435566439        0.42012104681493
C           -5.42072238807977       -0.28788423326498       -0.97577425416487
C           -6.27985520306129       -0.57034466724425       -2.02464108879796
C           -5.73816213867658       -0.83698380347454       -3.27207567843254
C           -4.36620540958875       -0.82082917340225       -3.47114715689996
C           -3.49996895011811       -0.53849974316363       -2.42322069574664
C           -4.03448419689134       -0.27549374591941       -1.18201977463555
C           -2.43307345514074       -1.10455546053108        0.52730227136685
C           -3.03250861921110       -2.33011777175232        0.77133859448095
C           -2.30273277342388       -3.43848796722818        1.17331025310599
C           -2.97786661832649       -4.74637700226218        1.44473887029223
C           -0.93128102319884       -3.28778404473039        1.34817729990678
C           -0.31420657909429       -2.07892730606040        1.11163294005503
C           -1.05008960384232       -0.97150264904496        0.67812810214894
N           -0.41783654599958        0.23862874186132        0.43276526938525
C            0.99468484788261        0.29749546537534        0.52058324104969
C            1.60119272165603        0.95211400844970        1.57418770755525
C            2.99531723246639        1.04927173104248        1.71801545726395
C            3.78884107874076        0.46338081686681        0.76120890895586
C            3.16408433406359       -0.20600759341027       -0.31940834764766
C            4.11635454780344       -0.74735325243682       -1.21614556618421
C            3.66829194749395       -1.42305551519520       -2.32414537190424
C            2.27780762001757       -1.54163455999368       -2.51316334951841
C            1.35524712728001       -1.01843248711994       -1.63984475496782
C            1.78742128330277       -0.31978009154795       -0.48835038958297
C            5.41502786206704       -0.40607856349903       -0.67217554376208
N            6.62016196989753       -0.67911626890766       -1.13294665272096
C            7.65061293737568       -0.24268050752165       -0.43422680722586
N            8.93276318866361       -0.34253230469435       -0.61200949553231
O            9.52926004178426        0.30124271069346        0.43026986676599
N            8.61564137536026        0.82555846912844        1.29540539488349
C            7.44040498680019        0.53064069726299        0.82837156104560
N            6.22203138314789        0.78839824499002        1.26187389734092
C            5.21264335004659        0.33722515376844        0.54032725834546
H           -4.37030582880596        4.84343653129122       -0.67791677868781
H           -3.28870807810499        5.08268874407380       -2.05025667440000
H           -2.89643629103890        5.80872956416959       -0.49496363287940
H           -0.64206927717512        4.64136592120831       -0.67202209324037
H            0.60439043222916        2.63125630361816       -0.09559514446483
H           -4.28606233955358        2.43876153473195       -0.48642086376692
H           -3.46095321229889        0.70906070298562        2.90331391380674
H           -5.58582137702027        0.91733347563437        4.15529535640485
H           -7.73553217984315        0.56110273620961        3.03108439178041
H           -7.82109930966692       -0.01106749300292        0.63007302900813
H           -7.34924094159943       -0.58234768794849       -1.87513958586252
H           -6.39317641039645       -1.05939950193796       -4.10169331663098
H           -3.96662759135816       -1.02961453809471       -4.45251039469920
H           -2.43105447061093       -0.52229795296881       -2.58090104314015
H           -4.10202865323601       -2.41684548356114        0.64231485105162
H           -3.87295846852287       -4.85313437014476        0.83659726084424
H           -3.27424805049837       -4.80250651104822        2.49289629554901
H           -2.30764482503417       -5.57812755349046        1.24052108405912
H           -0.33760276515070       -4.12770945872273        1.67747740171904
H            0.74964227139703       -1.98770301577834        1.26723571621780
H            0.96918209521214        1.40935197418227        2.32240645749618
H            3.41737420124289        1.56819664853928        2.56408704866994
H            4.35346211848664       -1.85420163693633       -3.03717058120877
H            1.92750598522066       -2.07075687378844       -3.38745579392858
H            0.29889722422476       -1.14189677961908       -1.82731107685055
