57
 energy: -90.484941676020 gnorm: 0.000056421384 xtb: 6.7.1 (edcfbbe)
C           -5.56316039174453       -2.58139280712165        0.04651873745983
C           -5.69343112180827       -1.19842520832956        0.09065893547677
C           -4.56605414523536       -0.39852311468083        0.08335022007868
C           -3.29407488431930       -0.95327946768617        0.03435581823123
C           -3.17229864939828       -2.34445935048690       -0.00661030146205
C           -4.31136842576784       -3.15405337158385       -0.00112589340271
O           -1.97651429417410       -2.98547075202213       -0.05252967506817
C           -0.82668010490714       -2.26149623918995       -0.04079735432700
C            0.37720343989231       -2.98474217204681       -0.06601847128476
C            1.57454017055677       -2.33099285676085       -0.05234979716223
C            1.64127782803575       -0.91032248211986       -0.01268556557328
C            2.91529794000649       -0.27762158485074        0.00278356997508
C            3.12272700213580        1.12141609172709        0.03171017309439
C            4.38420037483602        1.63814739953227        0.03433797763670
C            5.52541076899160        0.77990953372021        0.01068603885753
C            6.84151657823639        1.21556226155306        0.01448997507864
C            7.90066086359896        0.31075104888994       -0.00781262235666
C            7.64325480161095       -1.05254227466623       -0.03180265152740
C            6.34707082697394       -1.52540211515154       -0.03468703911258
C            5.25292296715506       -0.63137002061180       -0.01371749219009
N            4.01455347616049       -1.07984000190839       -0.01341227808987
C            0.41650259686835       -0.20822445571754        0.00857575616484
C           -0.79582334930230       -0.85752848033482       -0.00347576200896
C           -2.07841868340175       -0.06216434224334        0.01514939643280
C           -2.09569077891191        0.90930954071685        1.18241924270483
C           -2.06717505145619        0.62172439980673        2.52901403872713
C           -2.09008170997164        1.67771244846474        3.43144124982695
C           -2.13920062047075        2.99031525901839        2.98683626169102
C           -2.16695873384249        3.28275546203681        1.63203664861619
C           -2.14523943204633        2.23425224339995        0.72674124467052
C           -2.16749909651030        2.22362478820421       -0.72875813678599
C           -2.21616074953196        3.25864664029422       -1.64840113452762
C           -2.23047262141191        2.94632365764332       -2.99894680833802
C           -2.19760090176124        1.62726226881070       -3.42550760926376
C           -2.14773791057829        0.58469620362677       -2.50870132483016
C           -2.13246485927688        0.89231638004031       -1.16634961128850
H           -6.44056349087360       -3.20981374742523        0.05032438075126
H           -6.67278227761275       -0.74710117817928        0.12923054201014
H           -4.66346963518438        0.67666170415238        0.11530647257546
H           -4.17844035154552       -4.22425432361762       -0.03477403914443
H            0.32296070400621       -4.06230102711277       -0.09442524922711
H            2.50487461202115       -2.87659856632765       -0.06961801922109
H            2.26589681740104        1.77655306893114        0.04703162204027
H            4.54410262801644        2.70658120761715        0.05209565968141
H            7.03975821081578        2.27822925185740        0.03618813652678
H            8.91752428484275        0.67304837981161       -0.00571381132307
H            8.46505997555662       -1.75393116301633       -0.04842347367827
H            6.13812513566904       -2.58385585515738       -0.05537901294487
H            0.41332309203404        0.87004065130020        0.03558156905153
H           -2.02746292543983       -0.40022488164122        2.87797833237594
H           -2.06881506754155        1.47245443243612        4.49167931758315
H           -2.15615958484561        3.79568906900927        3.70685537556727
H           -2.20503325980983        4.30660549117045        1.29084680175461
H           -2.24231577649737        4.28748748013660       -1.32138487123420
H           -2.26806683277738        3.74105942669500       -3.72991795205944
H           -2.20989588505668        1.40632937105181       -4.48274618518866
H           -2.12124187771977       -0.44234782374034       -2.84382078867572
