  57
        -90.53695373
 C         -5.6477754695       -2.4031733839       -0.1731844513
 C         -5.7229078381       -1.0213382687       -0.0935085606
 C         -4.5628927120       -0.2726249508       -0.0442998552
 C         -3.3155023584       -0.8822892164       -0.0752603459
 C         -3.2491527909       -2.2693933247       -0.1579721168
 C         -4.4172492951       -3.0262491387       -0.2061821966
 O         -2.0760422404       -2.9670712940       -0.1973620622
 C         -0.9005968115       -2.2785331877       -0.1966225445
 C          0.2664655680       -3.0380054432       -0.2765624954
 C          1.4953084343       -2.4206996909       -0.2882437172
 C          1.5934517783       -1.0285531823       -0.2284401209
 C          2.9188971459       -0.3997823250       -0.2522781199
 C          3.0938034298        0.9399768421       -0.6844164599
 C          4.3469106309        1.4806071941       -0.6896346356
 C          5.4448323200        0.7008827761       -0.2671604947
 C          6.7700236565        1.1731189958       -0.2326816386
 C          7.7851798442        0.3526251440        0.1750704481
 C          7.5180948896       -0.9702241063        0.5636257652
 C          6.2421035857       -1.4593179194        0.5434919128
 C          5.1721496587       -0.6374437687        0.1294092625
 N          3.9300134012       -1.1484724418        0.1253493560
 C          0.4235258200       -0.2838209120       -0.1345719247
 C         -0.8219482278       -0.8917118269       -0.1183047540
 C         -2.0647961589       -0.0405194728       -0.0029548283
 C         -2.0345460866        0.7739512469        1.2760797224
 C         -2.0232739047        0.3186879052        2.5755055768
 C         -1.9884698215        1.2522885943        3.6028100962
 C         -1.9646122701        2.6108471359        3.3265832432
 C         -1.9755731445        3.0722743617        2.0197794998
 C         -2.0111771335        2.1461271155        0.9907966617
 C         -2.0306302645        2.3185249170       -0.4541215386
 C         -2.0154603436        3.4609392748       -1.2370151345
 C         -2.0390842284        3.3202303476       -2.6156786485
 C         -2.0773952918        2.0647949039       -3.2031807577
 C         -2.0918326478        0.9155499441       -2.4236349919
 C         -2.0684827514        1.0515786204       -1.0534520814
 H         -6.5490599473       -2.9958143133       -0.2104450767
 H         -6.6832628188       -0.5297784118       -0.0686003562
 H         -4.6133366749        0.8044507822        0.0202798475
 H         -4.3305240740       -4.0996386416       -0.2695791235
 H          0.1759680052       -4.1116914196       -0.3289617725
 H          2.4035669928       -2.9982244259       -0.3463137243
 H          2.2461271565        1.5124043422       -1.0274918875
 H          4.5151867736        2.4976274090       -1.0182248265
 H          6.9678103662        2.1924696896       -0.5354409450
 H          8.8019555086        0.7162682817        0.1994285801
 H          8.3360745396       -1.6000826448        0.8802647674
 H          6.0172011790       -2.4715837193        0.8408770021
 H          0.4638748911        0.7916593082       -0.0471430792
 H         -2.0410480540       -0.7397229205        2.7915054514
 H         -1.9796281833        0.9160232515        4.6289497943
 H         -1.9370688297        3.3188228004        4.1419631240
 H         -1.9565657072        4.1315456828        1.8102561497
 H         -1.9852758882        4.4410042854       -0.7844261953
 H         -2.0275307185        4.2003478548       -3.2420646370
 H         -2.0956106753        1.9797554102       -4.2796324499
 H         -2.1204005315       -0.0624368534       -2.8819106776
