57
 energy: -90.484998517618 gnorm: 0.000082365276 xtb: 6.7.1 (edcfbbe)
C           -5.60561468476369       -2.47151872632985       -0.19795461679810
C           -5.71186311990873       -1.08924269227048       -0.09961940765038
C           -4.57031517399184       -0.31256974832503       -0.03184882407228
C           -3.30784733364788       -0.88999419030066       -0.06120806364669
C           -3.21026725191477       -2.28011040176779       -0.16198175505885
C           -4.36368192229667       -3.06635964897501       -0.22934030387655
O           -2.02547687277742       -2.94167488102901       -0.20169733197160
C           -0.86313494025274       -2.23955274025245       -0.15148572039995
C            0.32820391523201       -2.98138958876435       -0.21037140951371
C            1.53660590868407       -2.34934825332421       -0.17071551740788
C            1.62777390485176       -0.93320550022110       -0.06738456745125
C            2.91238040737239       -0.32300750100386       -0.03520675081495
C            3.14376472112152        1.06909196381937        0.06384833666287
C            4.41360674517736        1.56487794515511        0.07042347846908
C            5.53957075234733        0.69116662699459       -0.02131723191034
C            6.86261647145264        1.10524040183912       -0.02188607876352
C            7.90574088788785        0.18627868976837       -0.11363166473054
C            7.62510875072297       -1.16977554483966       -0.20292206925825
C            6.32135007375248       -1.62139066061559       -0.20356111183321
C            5.24302476866156       -0.71249727932665       -0.11333367506907
N            3.99753073836230       -1.14083463146741       -0.11050560823225
C            0.41527524021185       -0.21237407332696       -0.00652175286397
C           -0.80797191018877       -0.83961205075409       -0.04775274743271
C           -2.07621784050270       -0.02402023258470        0.01663116922998
C           -2.10058298075724        0.83622247862615        1.26921983588639
C           -2.10154220241253        0.42639127653217        2.58416363660898
C           -2.12654863223090        1.39556655944002        3.57919757409270
C           -2.14962390768721        2.74395091573425        3.25635647547614
C           -2.14780311122450        3.15935635940806        1.93388334821856
C           -2.12293181342335        2.19793707021334        0.93665220568654
C           -2.11518761194709        2.32181916447534       -0.51366004078426
C           -2.12751271301513        3.43825868293418       -1.33394642824748
C           -2.11468434501575        3.25254367101269       -2.70761338603951
C           -2.09003553333201        1.97813751727693       -3.25366800603742
C           -2.07723196997951        0.85453089565366       -2.43685269833927
C           -2.08989430074280        1.03600114009041       -1.07164764468684
H           -6.49407964870907       -3.08194578270761       -0.25046032780811
H           -6.68347701775662       -0.62043937828599       -0.07573515873685
H           -4.64880459051021        0.76192619232866        0.04496454295120
H           -4.24962854278033       -4.13655294954160       -0.30567940274447
H            0.25575475771045       -4.05545697303891       -0.28807599825485
H            2.45745974528386       -2.90937103872825       -0.21607739077467
H            2.29851683718520        1.73592151674774        0.12999114072804
H            4.59177411656791        2.62823003485916        0.14118654268700
H            7.07907554534351        2.16199907412768        0.05186720378721
H            8.92838838482433        0.53192728257994       -0.11385099404633
H            8.43469832843599       -1.88199874360714       -0.27352737774572
H            6.09417342182419       -2.67380763251222       -0.27626071652058
H            0.43028555588556        0.86331880364802        0.07239642912718
H           -2.08262076336410       -0.62337985253824        2.83950019891363
H           -2.12729669801033        1.09386714740116        4.61637202218803
H           -2.16894326661614        3.47994446976490        4.04709796343942
H           -2.16531486921033        4.21056942797819        1.68733708436713
H           -2.14637082633599        4.43271918686448       -0.91350474097850
H           -2.12386729275089        4.11177247182551       -3.36255185608426
H           -2.07996891800006        1.85599265739251       -4.32677302993288
H           -2.05643559129994       -0.13695649633021       -2.86593063415565
