57
 energy: -90.573360890644 gnorm: 0.000147749855 xtb: 6.7.1 (edcfbbe)
C           -5.65148030949860       -2.39868428583123       -0.18758481417171
C           -5.72412350352072       -1.01767590439709       -0.08778811124496
C           -4.56261824927308       -0.27150281328905       -0.02886411733954
C           -3.31513187734868       -0.88190904159717       -0.06933129400365
C           -3.25275482339349       -2.26780570299119       -0.17106743562055
C           -4.42138714477053       -3.02314216407402       -0.22962031679279
O           -2.07779815743804       -2.96844179587167       -0.22062012937518
C           -0.89990977661918       -2.28131702282140       -0.20715281044050
C            0.26569902123321       -3.04268537856872       -0.29299131129326
C            1.49622195903887       -2.42764111718111       -0.29600753805395
C            1.59697356179679       -1.03624988317756       -0.22002230523289
C            2.92250807521017       -0.40541218879529       -0.24354195812014
C            3.09597786666731        0.93112839555838       -0.68584720907193
C            4.34881797403961        1.47328146311084       -0.69743361225885
C            5.44884960775172        0.69821134813858       -0.27101565306374
C            6.77439674296211        1.17178579175056       -0.24526339635078
C            7.79166332493073        0.35603331259511        0.16823393362662
C            7.52660532717322       -0.96342933058879        0.57120172524948
C            6.25050924574619       -1.45388990051631        0.55936929370843
C            5.17872774817820       -0.63657535240456        0.13934202881009
N            3.93551079416862       -1.14985002068386        0.14129789043979
C            0.42754789990932       -0.29099350086530       -0.11763411805425
C           -0.82021953083672       -0.89534122551527       -0.11084279078876
C           -2.06211285348815       -0.04198027056655        0.00563938586420
C           -2.03276474514228        0.77669335936193        1.28347731264293
C           -2.02205214470833        0.32702166494841        2.58553984617437
C           -1.99048909475221        1.26458502368416        3.60996434830078
C           -1.96970683720062        2.62244126939251        3.32879455342180
C           -1.98027984920726        3.07867572693193        2.01995652907185
C           -2.01272816511882        2.14843101100612        0.99386459959810
C           -2.03283088499347        2.31717744044929       -0.45204796331361
C           -2.02362242037552        3.45861300749898       -1.23732707823340
C           -2.04903872880796        3.31567327686417       -2.61596845157975
C           -2.08200192355484        2.05877040757120       -3.20121491409306
C           -2.09028846591145        0.91071898794194       -2.41921395230150
C           -2.06607981827520        1.04863599641269       -1.04871679494577
H           -6.55347440489554       -2.98991762386840       -0.23313515555984
H           -6.68355388122188       -0.52428753241340       -0.05525276379399
H           -4.61137544467765        0.80484634281212        0.05026651110418
H           -4.33538698339564       -4.09600675012529       -0.30761219001090
H            0.17356859650611       -4.11580277919897       -0.35872854279515
H            2.40251115470433       -3.00822396464294       -0.36174604454234
H            2.24668003686540        1.49903739941124       -1.03223065162790
H            4.51482359399986        2.48757843671163       -1.03526044063848
H            6.97011762177616        2.18848695703683       -0.55689027895910
H            8.80820424168828        0.72101463052548        0.18763164128667
H            8.34554721678833       -1.59071544435417        0.89223568961689
H            6.02743924145329       -2.46426151997181        0.86611616419323
H            0.47065307209189        0.78311047799190       -0.01701056030603
H           -2.03716327442156       -0.73065689893812        2.80714428812848
H           -1.98209562045024        0.93130011485406        4.63745646984719
H           -1.94528040502737        3.33366355559024        4.14184257587243
H           -1.96468113925659        4.13721246421568        1.80645786303683
H           -1.99758639099989        4.43965497330287       -0.78659912430447
H           -2.04297152203398        4.19494655731438       -3.24397426691961
H           -2.10148539261526        1.97053014337329       -4.27765043795193
H           -2.11522342962000       -0.06768030060706       -2.87757702528947
