  81
       -125.55236295
 Br        -4.7264565655        4.5234112131       -0.6553044152
 C         -3.7758456497        3.1829885552        0.3066147754
 C         -2.9764989399        3.5471467129        1.3768601093
 C         -2.2991136704        2.5592664555        2.0723225116
 C         -2.4287475389        1.2301830718        1.7150287621
 C         -3.2325266525        0.8801883159        0.6330557129
 N         -3.3931000265       -0.4657887639        0.2796561100
 C         -2.4168303375       -1.4091450922        0.0589615138
 C         -0.9877523779       -1.1590200742        0.0399631336
 C         -0.1293438693       -2.2050942208        0.3827221575
 C          1.2366401507       -2.0279511304        0.3597895650
 C          1.7927793524       -0.8006921447       -0.0028178691
 C          3.2462162979       -0.6075522890       -0.0169779898
 C          3.8165195396        0.5805363043        0.4383751488
 C          5.1827692808        0.7614409641        0.4363709537
 C          6.0295227768       -0.2387951864       -0.0447979266
 N          7.4124918990       -0.0560235791       -0.0578163045
 C          7.9537423306        1.2148010932       -0.2901744585
 C          7.3695697383        2.0758517471       -1.2186567120
 C          7.9060933549        3.3296631533       -1.4378964095
 C          9.0333262768        3.7418899993       -0.7461476051
 C          9.6215901932        2.8874386316        0.1719215406
 C          9.0877984778        1.6348294078        0.4042170984
 C          8.2698027503       -1.1420652737        0.1610047560
 C          7.9468854031       -2.1234584262        1.0976141448
 C          8.7959291748       -3.1931692949        1.3047656281
 C          9.9794733240       -3.2984445777        0.5925876709
 C         10.3078374818       -2.3227311921       -0.3343126692
 C          9.4615134533       -1.2535052362       -0.5545385475
 C          5.4628192864       -1.4259279393       -0.5125704622
 C          4.0970301184       -1.6071311815       -0.4875609491
 C          0.9321191799        0.2346948594       -0.3643842374
 C         -0.4361699650        0.0595353711       -0.3543359652
 N         -2.9482596080       -2.5778690294       -0.1895299036
 C         -4.3014265105       -2.4290333392       -0.1425910497
 C         -5.1784323185       -3.5727608602       -0.3399621198
 C         -4.6961538114       -4.6761104830       -1.0430887432
 C         -5.4977682174       -5.7821409987       -1.2455095419
 C         -6.7900816182       -5.8059999187       -0.7463304141
 C         -7.2705281890       -4.7207613190       -0.0323213529
 C         -6.4724623823       -3.6115380583        0.1753821218
 C         -4.6073800423       -1.1090049582        0.1383776238
 C         -5.8795197061       -0.4083473793        0.2646474343
 C         -6.8334391327       -0.5164795232       -0.7466973872
 C         -8.0261462155        0.1745957922       -0.6563824846
 C         -8.2830435183        0.9830421669        0.4395022232
 C         -7.3457386174        1.0866880032        1.4533097323
 C         -6.1507294964        0.3964486809        1.3698822849
 C         -3.9075503269        1.8636422925       -0.0831011631
 H         -2.8871854821        4.5837944218        1.6608088924
 H         -1.6742520271        2.8306849340        2.9091065274
 H         -1.9118921566        0.4585435715        2.2649141892
 H         -0.5619121902       -3.1519582569        0.6657272581
 H          1.8863670514       -2.8414831081        0.6469939091
 H          3.1801753994        1.3603302219        0.8309141732
 H          5.6074070108        1.6797629704        0.8148266087
 H          6.4968957336        1.7522994879       -1.7670381457
 H          7.4452534978        3.9864202285       -2.1611609679
 H          9.4507167078        4.7216984659       -0.9218986960
 H         10.4982768414        3.2018057294        0.7189862120
 H          9.5423361485        0.9734441280        1.1274226964
 H          7.0296139727       -2.0378912035        1.6617774171
 H          8.5349860566       -3.9458443631        2.0342543590
 H         10.6413900107       -4.1346711506        0.7591037058
 H         11.2263094953       -2.3989060315       -0.8975644435
 H          9.7148287913       -0.4985175313       -1.2844481589
 H          6.1042287334       -2.2023832521       -0.9029102991
 H          3.6775328303       -2.5246809950       -0.8728593811
 H          1.3433091503        1.1802764155       -0.6865798650
 H         -1.0741281399        0.8679988888       -0.6803766905
 H         -3.6863163669       -4.6431398971       -1.4214929320
 H         -5.1154687632       -6.6307554476       -1.7942544930
 H         -7.4187019766       -6.6697717733       -0.9065870234
 H         -8.2732372393       -4.7400880303        0.3701872050
 H         -6.8497151973       -2.7782594416        0.7493288995
 H         -6.6257674562       -1.1432048847       -1.6017487015
 H         -8.7559327967        0.0884345338       -1.4476597089
 H         -9.2121504966        1.5290168736        0.5039597827
 H         -7.5447307879        1.7088288033        2.3136552445
 H         -5.4279396298        0.4711816221        2.1705927602
 H         -4.5249997007        1.5971048151       -0.9269063371
