130
 energy: -202.709443348937 gnorm: 0.000035232630 xtb: 6.7.1 (edcfbbe)
O           -7.53476205784662        0.01954913118430       -1.09717312153909
P           -7.48794392771832        0.01584220333804        0.37651557698903
C           -9.15296727198900        0.00918111641079        1.11456361481014
C          -10.23482645879342       -0.09279600249799        0.25165790626712
C          -11.52565087368619       -0.09109296448814        0.75124263706179
C          -11.73504144902251        0.01539064389238        2.11656309739105
C          -10.65539853752975        0.12395500497229        2.98052663321340
C           -9.36498891567850        0.12337217480954        2.48355626598716
C           -6.66961228449866        1.46498107870295        1.11190360196779
C           -6.66505370044764        2.63300600517120        0.36424225634064
C           -6.07870446451621        3.77881845572521        0.87198059306176
C           -5.50082608283948        3.75789382384103        2.13118357124173
C           -5.51051232177717        2.59275445041400        2.88191726468824
C           -6.09593838527196        1.44568678780521        2.37630522962443
C           -6.63858053412564       -1.42318919144675        1.10767630333449
C           -7.24332070167800       -2.44084406516658        1.82480236874237
C           -6.47632465741240       -3.47975797319663        2.32661595095138
C           -5.10880028148303       -3.50015420779019        2.10712437178189
C           -4.49348116790779       -2.49802538135808        1.37628990886589
C           -5.26489836087879       -1.46271154472244        0.86864185469049
O           -4.79169308076755       -0.46176693792342        0.07156151447643
C           -3.45609746258877       -0.13687527343558        0.12856286462235
C           -2.84435083069728        0.26701488945722        1.30747296198345
C           -1.51771688177471        0.65511592723328        1.29773880437704
C           -0.76945098367046        0.64185367872983        0.12074061630583
C            0.64572818938493        1.04036137787426        0.11982393347131
C            1.08344039864661        2.13419629882908        0.86202702207096
C            2.41514787280800        2.50387354626521        0.86039096640056
C            3.35162492043981        1.77960653061672        0.13380259248119
C            4.80580592821086        2.20337154602284        0.08221658059156
C            5.75134662883523        1.01862578241604        0.07173844247185
C            5.48731789606148       -0.08968547422648        0.87018927465720
C            6.36806216368646       -1.15181473524862        0.92305302272398
C            7.53619940355417       -1.12896890154766        0.16710778086331
N            8.42541928000900       -2.21478841912102        0.20752693650556
C            9.78149715314320       -2.14329470341852        0.45424867865599
C           10.56854246647426       -1.04016554929345        0.75528099816013
C           11.91391991199981       -1.25130944604769        0.98908148646903
C           12.47059125642208       -2.52795230737845        0.93482958057851
C           11.68932073727641       -3.63169916511761        0.65595759939641
C           10.33352487224090       -3.44521835697106        0.41698608471871
C            9.24855753060716       -4.33976062138854        0.12439401879962
C            9.16398769805602       -5.71456872581962       -0.05697426362404
C            7.93555894562780       -6.26862878793237       -0.35786536368543
C            6.80202626499867       -5.46861371776468       -0.49059183572706
C            6.86057913839776       -4.09932265833846       -0.31488210540145
C            8.08878301512100       -3.53840374119468        0.00745313753759
C            7.81006312118041       -0.02093474218130       -0.62758644019010
C            6.92970328535611        1.04431816493608       -0.66333418189316
C            4.97568998440782        3.13013349905280       -1.10880685357865
C            4.72828699841448        2.87646611350368       -2.44139317804342
C            4.93960363731280        3.89265833652250       -3.36418972624847
C            5.38458384919619        5.14147003363493       -2.95705219145062
C            5.62778982846209        5.40487003243923       -1.61845405015363
C            5.41900826161121        4.39422202805877       -0.69399752441006
C            5.58161744904940        4.37796925669746        0.75113338101071
C            6.00785588131104        5.36333620316564        1.62702060199409
C            6.06931618571800        5.06871294559725        2.97973257293128
C            5.71471502955276        3.81254866790384        3.44844547301549
C            5.28803800147948        2.82109976286203        2.57440105414854
C            5.21773522750714        3.11063835192320        1.22810410696695
C            2.91472239481062        0.69218114888111       -0.61620209519770
C            1.58292732468322        0.32889145308395       -0.62615200488360
C           -1.39388633517851        0.22702137619786       -1.05253171285566
C           -2.72412232014345       -0.15675168313316       -1.05600195249672
P           -3.45140656670011       -0.77004895986740       -2.60709144531841
O           -2.42976617275016       -0.86884402597371       -3.67192856225131
C           -4.79868272085172        0.35349027215161       -3.08210405533631
C           -4.87921120708280        1.64660710916212       -2.59220457513019
C           -5.83833086683313        2.50908123506734       -3.09444348315961
C           -6.71734725806188        2.07865455584280       -4.07363465478813
C           -6.63093679935805        0.78694866208849       -4.56817917694584
C           -5.66375426325765       -0.07181885208965       -4.08123977911009
C           -4.16568219104496       -2.39540134674619       -2.19633053784489
C           -5.51310663211757       -2.61184309286409       -1.94599994117175
C           -5.95331980720509       -3.88837075703838       -1.64076410201988
C           -5.05618660396294       -4.94221656090498       -1.57867924971803
C           -3.70982051104207       -4.72576100648768       -1.82734137214982
C           -3.26610888924671       -3.45340200674403       -2.13808829342557
H          -10.04351958693142       -0.17181471486601       -0.80964090890756
H          -12.36559385799433       -0.17223822989859        0.07683979697433
H          -12.74120172479589        0.01693602703536        2.50935806472803
H          -10.82186179188321        0.21027780508107        4.04436962956900
H           -8.52187964139286        0.21017717561553        3.15275052809120
H           -7.11423133003762        2.61556655624997       -0.61887366473174
H           -6.07248519147585        4.68796372905232        0.28856824685112
H           -5.04089322330432        4.65078099788138        2.52855669559822
H           -5.05869236360428        2.57848394869363        3.86339963913398
H           -6.09689598490102        0.53104123816392        2.95414492371279
H           -8.30993881804092       -2.41039735533418        1.99476333458003
H           -6.94583761837403       -4.27173321194664        2.88954656395395
H           -4.51039965542000       -4.30841393951182        2.49932071397827
H           -3.43054829194245       -2.52414038178707        1.18597996701055
H           -3.41445245417811        0.27489864343085        2.22445805281986
H           -1.04941295823492        0.95510738857052        2.22286657673576
H            0.37031901277543        2.71682745653772        1.42634160104970
H            2.72886204329563        3.36469152565815        1.43230144261742
H            4.57979651276936       -0.12550770156964        1.45446158808519
H            6.15996598224735       -2.00035603644342        1.55787001131009
H           10.14343807629409       -0.04943955424032        0.81505341052409
H           12.54811277973459       -0.40837750549280        1.22298846085670
H           13.52728492608816       -2.65177435894419        1.12207823867507
H           12.11877919024879       -4.62218651120174        0.62776699588741
H           10.04451261946936       -6.33349008823361        0.03188553539049
H            7.84832681866555       -7.33580674987760       -0.50133410096971
H            5.85697417327467       -5.92923181657524       -0.73998210371149
H            5.97961460797618       -3.48696130073911       -0.43530489984320
H            8.70918082059307       -0.00125773578191       -1.22517907779039
H            7.15905896936267        1.89937442482012       -1.28163514200969
H            4.37975645065984        1.90805910039316       -2.76799562276359
H            4.75282579448802        3.70727793539058       -4.41205996086815
H            5.54140107625408        5.91745783996732       -3.69250529733736
H            5.97087866057816        6.37921055596658       -1.30340739798790
H            6.28781485800368        6.34114628769445        1.26399408435049
H            6.39873887200840        5.82522179313802        3.67749266848974
H            5.77137629748180        3.60175916142052        4.50659313271865
H            5.01461812702858        1.84538166468595        2.94745463866428
H            3.62615451835302        0.11628310137178       -1.18997455316085
H            1.26645165778625       -0.52751468278512       -1.20347729711294
H           -0.85988853775959        0.20256853438151       -1.99226984269247
H           -4.19623066086530        1.97286997532044       -1.81912803403018
H           -5.89755653851440        3.52153049223263       -2.72166034164009
H           -7.47091780221994        2.75195983497849       -4.45592885748451
H           -7.31462472465592        0.45174368089976       -5.33468614379229
H           -5.56790440292590       -1.07865927153734       -4.46842329348366
H           -6.20723019895234       -1.78529504827827       -1.98042508691393
H           -7.00300585536313       -4.05687803571356       -1.44910280130069
H           -5.40732681982791       -5.93490786788088       -1.33838137527360
H           -3.00902808099316       -5.54657646228465       -1.78133842961938
H           -2.22271004389569       -3.26060308965319       -2.35160257517865
