130
 energy: -202.604141100218 gnorm: 0.000079539051 xtb: 6.7.1 (edcfbbe)
O           -7.14092425378960       -1.22286260419038       -0.96702533767940
P           -7.33985311289480        0.09439346399605       -0.33302560817585
C           -9.06771281367491        0.65734702526917       -0.44241085884058
C          -10.00185780289960       -0.21816064806408       -0.97716087579752
C          -11.32606529615241        0.16701824336020       -1.09555577166050
C          -11.71499904917362        1.43170951491467       -0.68464139418322
C          -10.78114340081775        2.31124841604267       -0.15705704543495
C           -9.45800213708683        1.92840181274042       -0.03673222849130
C           -6.38450236417430        1.44878494903787       -1.08217909893588
C           -6.10041776477787        1.33993846933001       -2.43579685142570
C           -5.40751580597881        2.34762955856089       -3.08207264025964
C           -5.00052875255828        3.46808630588025       -2.37543544277118
C           -5.29304910010441        3.58296138560329       -1.02545783400726
C           -5.98893325599757        2.57830504352129       -0.37772771642023
C           -6.93466907147150        0.14884814056494        1.44223061385814
C           -7.84471454839780        0.29281544229871        2.47408159909373
C           -7.40219812919338        0.31426548424123        3.78733950852159
C           -6.04809905118042        0.18369760958728        4.06565576783962
C           -5.12849134582317        0.02508829432097        3.04637473354507
C           -5.57334677960439       -0.00183462778815        1.72803565145575
O           -4.77153338621332       -0.22307905468564        0.65140644924899
C           -3.45784624460308        0.14759174535061        0.70592139263263
C           -3.02163637282442        1.39056791566063        1.20368931162457
C           -1.71093578009278        1.75022767146124        1.14500382114749
C           -0.69609148522240        0.87876162899176        0.58692183822713
C            0.65511195680545        1.25293197987916        0.48782855158524
C            1.18332295984738        2.42761172358955        1.12601258984808
C            2.49907890213868        2.77043457792703        1.03501561885707
C            3.41536496817847        1.98837112784891        0.30631135017043
C            4.84854809062441        2.41593052460457        0.13483655679585
C            5.80842125018446        1.25419829917053        0.02292602643561
C            5.63795701302225        0.13012274315741        0.82613896258345
C            6.53559481913458       -0.91705257485143        0.77858933045102
C            7.63041257860579       -0.85881355418671       -0.08046070810350
N            8.54179332863468       -1.92221578090068       -0.13993846622879
C            9.91363477297593       -1.81325827245526       -0.03840512592027
C           10.69491358536015       -0.69054417472657        0.20206028474765
C           12.06416794596219       -0.86393342306725        0.28404489177854
C           12.64739261809260       -2.12099692760684        0.14222976473720
C           11.87200588722578       -3.24646630654818       -0.07200547690472
C           10.49546945316892       -3.09743844661013       -0.15873538399734
C            9.40815605015372       -4.02079189737512       -0.34852155669370
C            9.34313013372208       -5.39260990993698       -0.54410975495124
C            8.10226717172911       -5.97812133497071       -0.72079125177675
C            6.93976976149277       -5.21081588549448       -0.71762345547742
C            6.97957496549529       -3.84213029947908       -0.52560644383979
C            8.22055862056862       -3.25166760634041       -0.32530336833361
C            7.81187164766439        0.26633260836794       -0.88032895432850
C            6.91148728359972        1.31217197873128       -0.82074996094464
C            4.85809087744510        3.35022064483106       -1.06437917670334
C            4.49823549574073        3.08031654285834       -2.36889853701069
C            4.55692592011498        4.10688839784878       -3.30072014145957
C            4.95404460867432        5.38443574003881       -2.92846774867219
C            5.30786423751057        5.66325236937707       -1.61855781075730
C            5.25937538141486        4.64104951333881       -0.68372396022409
C            5.57703874703899        4.62940088818166        0.73359062909949
C            6.04400008133773        5.63253620800298        1.56877702369916
C            6.27042696284335        5.33494778712228        2.90298605862161
C            6.03566190480449        4.05978808896827        3.39555632492565
C            5.56846611919690        3.04999089211306        2.56334290200492
C            5.33829623394399        3.34140708838537        1.23626687221891
C            2.91422083874769        0.85322100695280       -0.36486673565831
C            1.60490348982289        0.49073602355521       -0.27516086378068
C           -1.16940095600818       -0.40020136784465        0.15105012565617
C           -2.48607620461435       -0.75285388175348        0.19213022146920
P           -2.92024537361280       -2.45510305179347       -0.25383211347836
O           -1.71397014368033       -3.26208535223547       -0.54493514663770
C           -4.01759648665063       -2.41207461609533       -1.70413275643683
C           -3.94348415090223       -1.36458660517605       -2.60767049875901
C           -4.64631536457662       -1.43509504094092       -3.79790305628176
C           -5.42632890049262       -2.54404551567409       -4.07898889819904
C           -5.49403797863848       -3.59417409387250       -3.17743583999507
C           -4.77918181015373       -3.53475561266654       -1.99575429178456
C           -3.86371162493462       -3.12516881140196        1.15477388290995
C           -5.24899946593059       -3.10293649242021        1.24354613915738
C           -5.86975978054687       -3.62906316800642        2.36312148101187
C           -5.11636963519576       -4.16939882095215        3.39325395996828
C           -3.73320339644691       -4.19133841314633        3.30516818401347
C           -3.10863282264642       -3.67040966581098        2.18666654786132
H           -9.67020554740173       -1.19747416597711       -1.29390203976011
H          -12.05238847453600       -0.51711013480879       -1.50948427319713
H          -12.74748702309772        1.73483872671678       -0.77750958541025
H          -11.08653065655682        3.29815038294875        0.15875530383483
H           -8.72510383896083        2.60908876235764        0.37119322190130
H           -6.42036930403854        0.44943090847879       -2.95864310266840
H           -5.18432880817147        2.26145401568603       -4.13548151753225
H           -4.45464576140903        4.25383617500689       -2.87657487715397
H           -4.97640144496963        4.45798919457386       -0.47644399543966
H           -6.21718037036357        2.66298531763363        0.67638223658393
H           -8.89548174297023        0.39848410768191        2.24491763681073
H           -8.11066235832889        0.43327487295168        4.59242242661207
H           -5.70490061411483        0.19433246787337        5.08909212832926
H           -4.07699680332275       -0.10402411615234        3.25848248432266
H           -3.75791982617669        2.07164755271913        1.60647375067175
H           -1.43096873175655        2.73009535848926        1.49235372137722
H            0.52992117907983        3.04583091143919        1.71935494660073
H            2.85396714182545        3.65814981046026        1.53913518966366
H            4.78994184147999        0.07501595624033        1.49288528772037
H            6.40352765043038       -1.77628639768001        1.41896345568095
H           10.24963014236280        0.28401568585736        0.33160415987157
H           12.69468346515289       -0.00630672261373        0.46671411806910
H           13.72099051041890       -2.21579892239904        0.21029941678623
H           12.32547988749584       -4.22164704516084       -0.16501324553422
H           10.24358062267319       -5.98765001448125       -0.56240252482922
H            8.03038328921181       -7.04493411093518       -0.87254876637444
H            5.98622233767291       -5.69397979237503       -0.87221357030434
H            6.07428957603389       -3.25479880212399       -0.54192137168134
H            8.64906949178453        0.30831233685078       -1.56083746332934
H            7.06087964328116        2.17809074855921       -1.44837453467299
H            4.18243463956839        2.09074929850400       -2.66395798021180
H            4.28748515239598        3.90953451076075       -4.32812789924454
H            4.98525136016672        6.16953665395402       -3.67013890518145
H            5.61389051030843        6.65841921639381       -1.33169960469620
H            6.22833551426277        6.62610438762747        1.18798686701173
H            6.63449778576298        6.10472295866134        3.56821247508969
H            6.21915263160642        3.84753908551774        4.43879944233991
H            5.38869283811858        2.05966083006224        2.95427040236375
H            3.58964237344835        0.25644721313508       -0.96169737850563
H            1.26749771741576       -0.37746278238641       -0.81833407669435
H           -0.47718369803775       -1.15634207040493       -0.18807359413269
H           -3.33737415580402       -0.49886098805007       -2.37306778644085
H           -4.58168681585851       -0.62382243473157       -4.50859006891195
H           -5.98079810599703       -2.59281116754022       -5.00512934552930
H           -6.09971478832393       -4.46125069702113       -3.39843958971626
H           -4.80455678782845       -4.35551811347176       -1.29008517169363
H           -5.83429644829563       -2.67583599659464        0.44266861118128
H           -6.94818615839140       -3.61528174395133        2.42838633148648
H           -5.60806410150071       -4.57737639789969        4.26423114422614
H           -3.14362190964708       -4.61522412962842        4.10511531209206
H           -2.03121078459831       -3.68767764478256        2.08673290076330
