  60
       -107.92859153
 O          6.4255886691        0.5114197441        1.5731703172
 C          5.6659440137       -0.4212068571        1.4861099782
 O          6.0964082149       -1.6676445617        1.2348961730
 C          4.1981483021       -0.3259857152        1.6389675935
 C          3.6376056393        0.9181818158        1.9187918464
 C          2.2718573878        1.0448571490        2.0667839113
 C          1.4429280601       -0.0643720618        1.9396581660
 C         -0.0520767700        0.0770836527        2.0465455340
 C         -0.6665155481        0.1051872140        0.6503831583
 C         -2.1830999050       -0.0675251271        0.4729165120
 C         -3.0109631095       -0.3565438013        1.6416255009
 C         -4.2786787522        0.1072045691        1.7564004787
 C         -4.8795170002        0.8849548013        0.7424429752
 C         -6.2508772500        1.3409582310        0.9184250002
 O         -6.9385651063        1.1104781335        1.8907912551
 O         -6.7182957744        2.0718803644       -0.1187131784
 C         -4.1183542609        1.1902726177       -0.4060068602
 C         -2.8466944202        0.7423809307       -0.5479403412
 C          0.0253175664        1.1455476195       -0.1668517238
 C         -0.3748364129        2.4757546677       -0.0642639347
 C          0.3172760673        3.4648441442       -0.7311973795
 C          1.4299585354        3.1404987450       -1.5045350245
 C          2.1560811090        4.2342571095       -2.1883779173
 O          1.8461517586        5.3980903544       -2.1318369287
 O          3.2153475813        3.8105314999       -2.8928565720
 C          1.8342446714        1.8123123466       -1.6083995672
 C          1.1357689573        0.8248092445       -0.9431268814
 C         -1.1466000392       -1.1851301246       -0.0258667625
 C         -0.9280878246       -1.3197646311       -1.4663408339
 C         -0.6508860261       -2.5108142782       -2.0512176724
 C         -0.5828338762       -3.7015351566       -1.2963335478
 C         -0.2937508529       -4.9958898388       -1.8955212018
 O         -0.2184376555       -6.0414049856       -1.2845169724
 O         -0.1036125473       -4.9459606696       -3.2336322688
 C         -0.8267646776       -3.6271125403        0.0925733001
 C         -1.1044050999       -2.4510452625        0.7052646450
 C          2.0072825027       -1.3051550996        1.6617333820
 C          3.3731545588       -1.4407233869        1.5131638983
 H          7.0624307099       -1.6685225210        1.1494098695
 H          4.2911883273        1.7714167978        2.0147983325
 H          1.8418791514        2.0127404316        2.2794007004
 H         -0.4493747688       -0.7393796984        2.6452940835
 H         -0.2999069264        1.0189042223        2.5433749584
 H         -2.5998756657       -0.9415864969        2.4462174614
 H         -4.8686916503       -0.1135220054        2.6331728370
 H         -7.6307621558        2.3370886282        0.0699272027
 H         -4.5695651854        1.7914036192       -1.1797788638
 H         -2.2911815170        1.0111306405       -1.4310790101
 H         -1.2345145695        2.7271156605        0.5400186570
 H          0.0174464063        4.4993497623       -0.6622515148
 H          3.6568173396        4.5671841144       -3.3092209917
 H          2.6963197371        1.5624517976       -2.2056019331
 H          1.4542851756       -0.2043932723       -1.0170780411
 H         -0.9661886784       -0.4327630788       -2.0763201559
 H         -0.4849325652       -2.5651986573       -3.1158610884
 H          0.0785884313       -5.8403283219       -3.5584362463
 H         -0.7940675992       -4.5478099166        0.6559869422
 H         -1.3047606346       -2.4551032996        1.7633265510
 H          1.3691854183       -2.1705225245        1.5547105157
 H          3.8070860149       -2.4042967830        1.2981718002
