  60
  -107.552960304500       0.151577120917131      !
 O          6.4255886691        0.5114197441        1.5731703172
 C          5.6659440137       -0.4212068571        1.4861099782
 O          6.0964082149       -1.6676445617        1.2348961730
 C          4.1981483021       -0.3259857152        1.6389675935
 C          3.6376056393        0.9181818158        1.9187918464
 C          2.2718573878        1.0448571490        2.0667839113
 C          1.4429280601       -0.0643720618        1.9396581660
 C         -0.0520767700        0.0770836527        2.0465455340
 C         -0.6665155481        0.1051872140        0.6503831583
 C         -2.1830999050       -0.0675251271        0.4729165120
 C         -3.0109631095       -0.3565438013        1.6416255009
 C         -4.2786787522        0.1072045691        1.7564004787
 C         -4.8795170002        0.8849548013        0.7424429752
 C         -6.2508772500        1.3409582310        0.9184250002
 O         -6.9385651063        1.1104781335        1.8907912551
 O         -6.7182957744        2.0718803644       -0.1187131784
 C         -4.1183542609        1.1902726177       -0.4060068602
 C         -2.8466944202        0.7423809307       -0.5479403412
 C          0.0253175664        1.1455476195       -0.1668517238
 C         -0.3748364129        2.4757546677       -0.0642639347
 C          0.3172760673        3.4648441442       -0.7311973795
 C          1.4299585354        3.1404987450       -1.5045350245
 C          2.1560811090        4.2342571095       -2.1883779173
 O          1.8461517586        5.3980903544       -2.1318369287
 O          3.2153475813        3.8105314999       -2.8928565720
 C          1.8342446714        1.8123123466       -1.6083995672
 C          1.1357689573        0.8248092445       -0.9431268814
 C         -1.1466000392       -1.1851301246       -0.0258667625
 C         -0.9280878246       -1.3197646311       -1.4663408339
 C         -0.6508860261       -2.5108142782       -2.0512176724
 C         -0.5828338762       -3.7015351566       -1.2963335478
 C         -0.2937508529       -4.9958898388       -1.8955212018
 O         -0.2184376555       -6.0414049856       -1.2845169724
 O         -0.1036125473       -4.9459606696       -3.2336322688
 C         -0.8267646776       -3.6271125403        0.0925733001
 C         -1.1044050999       -2.4510452625        0.7052646450
 C          2.0072825027       -1.3051550996        1.6617333820
 C          3.3731545588       -1.4407233869        1.5131638983
 H          7.0624307099       -1.6685225210        1.1494098695
 H          4.2911883273        1.7714167978        2.0147983325
 H          1.8418791514        2.0127404316        2.2794007004
 H         -0.4493747688       -0.7393796984        2.6452940835
 H         -0.2999069264        1.0189042223        2.5433749584
 H         -2.5998756657       -0.9415864969        2.4462174614
 H         -4.8686916503       -0.1135220054        2.6331728370
 H         -7.6307621558        2.3370886282        0.0699272027
 H         -4.5695651854        1.7914036192       -1.1797788638
 H         -2.2911815170        1.0111306405       -1.4310790101
 H         -1.2345145695        2.7271156605        0.5400186570
 H          0.0174464063        4.4993497623       -0.6622515148
 H          3.6568173396        4.5671841144       -3.3092209917
 H          2.6963197371        1.5624517976       -2.2056019331
 H          1.4542851756       -0.2043932723       -1.0170780411
 H         -0.9661886784       -0.4327630788       -2.0763201559
 H         -0.4849325652       -2.5651986573       -3.1158610884
 H          0.0785884313       -5.8403283219       -3.5584362463
 H         -0.7940675992       -4.5478099166        0.6559869422
 H         -1.3047606346       -2.4551032996        1.7633265510
 H          1.3691854183       -2.1705225245        1.5547105157
 H          3.8070860149       -2.4042967830        1.2981718002
  60
  -107.552823804500       0.131190563386058      !
 O          6.1983087342       -1.5363342268        1.1522603890
 C          5.6634551201       -0.5075411687        1.4828212500
 O          6.3663035578        0.6075164809        1.7390004049
 C          4.2041752081       -0.3342988282        1.6492468573
 C          3.6452842432        0.8942807786        1.9896769813
 C          2.2767690500        1.0107708050        2.1317364147
 C          1.4467310557       -0.0884259151        1.9432686074
 C         -0.0487011844        0.0490709013        2.0519163308
 C         -0.6634369871        0.0896091439        0.6566626898
 C         -2.1816625388       -0.0697483644        0.4789631079
 C         -3.0119832093       -0.3593152036        1.6456797472
 C         -4.2798095415        0.1050960939        1.7582262794
 C         -4.8774069530        0.8858606785        0.7446357716
 C         -6.2506036405        1.3383844507        0.9148594245
 O         -6.9426298196        1.1049949499        1.8834266626
 O         -6.7150500244        2.0687201675       -0.1241948252
 C         -4.1109361771        1.1983728819       -0.3984005822
 C         -2.8390383451        0.7504966501       -0.5376464059
 C          0.0341256576        1.1297645105       -0.1559771469
 C         -0.3516566098        2.4631339906       -0.0378176823
 C          0.3370977743        3.4501396293       -0.7110969143
 C          1.4306762025        3.1201840728       -1.5092830340
 C          2.1466492493        4.2096172231       -2.2092634285
 O          1.8631750312        5.3785829046       -2.1237487530
 O          3.1640086375        3.7764244554       -2.9691865990
 C          1.8231432637        1.7892916759       -1.6252330092
 C          1.1298414695        0.8042216313       -0.9509293792
 C         -1.1547624798       -1.1926443527       -0.0269845151
 C         -0.9398564596       -1.3213974445       -1.4687608591
 C         -0.6629052431       -2.5099923554       -2.0589171214
 C         -0.5949993673       -3.7039338019       -1.3093741060
 C         -0.3021960678       -4.9954747311       -1.9144074637
 O         -0.2356075319       -6.0443161193       -1.3089900202
 O         -0.1009001655       -4.9373299662       -3.2502775085
 C         -0.8429423434       -3.6364505017        0.0791293107
 C         -1.1196578887       -2.4629937522        0.6973816915
 C          2.0105506284       -1.3151743787        1.6053968399
 C          3.3765113017       -1.4392843391        1.4585759585
 H          7.3123338242        0.4308361128        1.6165724690
 H          4.2861132294        1.7488669506        2.1385000984
 H          1.8457099418        1.9671686665        2.3899851187
 H         -0.4432751260       -0.7749940680        2.6422734668
 H         -0.2982027562        0.9846457633        2.5595752281
 H         -2.6026972917       -0.9461598158        2.4500206110
 H         -4.8723778775       -0.1175786090        2.6327791860
 H         -7.6298153696        2.3297468185        0.0591846298
 H         -4.5582159948        1.8052952778       -1.1699490441
 H         -2.2788881272        1.0259862614       -1.4158013456
 H         -1.1993436770        2.7181094939        0.5816905028
 H          0.0474560849        4.4867986310       -0.6312336059
 H          3.5934296081        4.5308906690       -3.4017058457
 H          2.6718585038        1.5347102324       -2.2396422923
 H          1.4400762896       -0.2266919593       -1.0345860490
 H         -0.9797038638       -0.4321906136       -2.0752995268
 H         -0.4963008726       -2.5594045275       -3.1236229210
 H          0.0869479609       -5.8289737658       -3.5788081897
 H         -0.8122769067       -4.5599831619        0.6379916356
 H         -1.3217662303       -2.4720242203        1.7550946976
 H          1.3727217833       -2.1736612455        1.4511788828
 H          3.8257245678       -2.3843927446        1.1954178174
  60
  -107.552735651800       0.119506195608316      !
 O          6.4432732308        0.5148323799        1.7350869657
 C          5.6854242855       -0.4052977829        1.5531404111
 O          6.1205920737       -1.6283852163        1.2115273205
 C          4.2142184471       -0.3188564833        1.6789515983
 C          3.6454410529        0.9127481907        1.9950616570
 C          2.2767416370        1.0308693018        2.1227396936
 C          1.4537081818       -0.0751953747        1.9425631711
 C         -0.0429439283        0.0558838982        2.0410530724
 C         -0.6527961310        0.0853892822        0.6436920549
 C         -2.1707047519       -0.0848375638        0.4655834454
 C         -2.9980621970       -0.3755040279        1.6341000222
 C         -4.2600148326        0.1018025666        1.7575824234
 C         -4.8560006655        0.8941415158        0.7520579084
 C         -6.2196416314        1.3680432778        0.9380933141
 O         -6.9065840331        1.1406302446        1.9118553563
 O         -6.6817709608        2.1128883177       -0.0921405585
 C         -4.0980034820        1.1938824662       -0.4000504361
 C         -2.8321629045        0.7325077348       -0.5505037387
 C          0.0400602554        1.1255447839       -0.1729071820
 C         -0.3579842386        2.4560257155       -0.0704499515
 C          0.3225593576        3.4473329117       -0.7484553582
 C          1.4224146030        3.1186217257       -1.5364930234
 C          2.1846812936        4.1467847565       -2.2796012241
 O          3.1055326580        3.9117651899       -3.0210483080
 O          1.7520025060        5.3971236945       -2.0534027162
 C          1.8270741742        1.7892184190       -1.6365138046
 C          1.1433546982        0.8016221937       -0.9586269876
 C         -1.1353962028       -1.2012457752       -0.0369152886
 C         -0.9224168217       -1.3308925194       -1.4789099730
 C         -0.6566423247       -2.5211427056       -2.0705913250
 C         -0.5929787531       -3.7155649585       -1.3214769084
 C         -0.3174536709       -5.0094034765       -1.9290455444
 O         -0.2444315533       -6.0578815009       -1.3230737226
 O         -0.1391227900       -4.9542081474       -3.2681306069
 C         -0.8250648707       -3.6452450690        0.0695987161
 C         -1.0923858194       -2.4702864733        0.6890804793
 C          2.0262623026       -1.3034573666        1.6274722943
 C          3.3947929618       -1.4297111703        1.4955776706
 H          7.0881821310       -1.6232551370        1.1447532518
 H          4.2952821390        1.7627101379        2.1353407828
 H          1.8400804149        1.9891888540        2.3635014101
 H         -0.4374572598       -0.7651562858        2.6355010850
 H         -0.2988040257        0.9939023409        2.5410863253
 H         -2.5910055660       -0.9730543003        2.4316081216
 H         -4.8490088389       -0.1190680282        2.6349815144
 H         -7.5906752263        2.3866498993        0.1015426917
 H         -4.5476874312        1.8005151995       -1.1704714531
 H         -2.2795724131        0.9961194065       -1.4370007709
 H         -1.2117342603        2.7081884980        0.5420967759
 H          0.0106955427        4.4765962687       -0.6704481069
 H          2.2887626455        6.0249575694       -2.5617736488
 H          2.6834827529        1.5528740450       -2.2488181667
 H          1.4639690375       -0.2269218122       -1.0306837091
 H         -0.9563439871       -0.4412091873       -2.0851584404
 H         -0.4953276872       -2.5711552235       -3.1359850067
 H          0.0358121329       -5.8475841594       -3.5994561338
 H         -0.7911103193       -4.5680437446        0.6294702178
 H         -1.2820109836       -2.4774498204        1.7491899465
 H          1.3925302679       -2.1661093560        1.4793363274
 H          3.8353784498       -2.3834897936        1.2518885289
  60
  -107.552726195400       0.118316294750358      !
 O          3.2496652700        3.4318340589        4.5006290373
 C          3.7429433147        2.7399542685        3.6449797845
 O          5.0063302024        2.9174721416        3.2273830584
 C          3.0472728209        1.6307898058        2.9567350109
 C          1.7346796720        1.3385515507        3.3221331994
 C          1.0542957868        0.3125771659        2.6994740301
 C          1.6715673680       -0.4390274162        1.7043434651
 C          0.9068387439       -1.5249076612        0.9963063271
 C         -0.0589375645       -0.9078587505       -0.0108233399
 C         -1.5296851038       -0.6604469722        0.3421176510
 C         -2.0489505257       -1.0786675557        1.6439293221
 C         -3.0097581668       -0.3789207222        2.2940791984
 C         -3.5824046726        0.7873732957        1.7409798306
 C         -4.6227710940        1.4863214696        2.4821770093
 O         -5.0413035239        1.1518664466        3.5704062675
 O         -5.1039439341        2.5770334653        1.8450249268
 C         -3.1306162871        1.2180425768        0.4753069951
 C         -2.1699893711        0.5394607995       -0.1986335787
 C          0.6682525493        0.1030515445       -0.8340849120
 C          0.6859361909        1.4453952348       -0.4625970268
 C          1.4444341305        2.3525362446       -1.1720153206
 C          2.2006241375        1.9329767765       -2.2645808296
 C          3.0063900585        2.9377106438       -2.9927159361
 O          3.0492112515        4.1104233773       -2.7166121663
 O          3.7071836462        2.4203812668       -4.0142352845
 C          2.1846433715        0.5922335826       -2.6401806480
 C          1.4267302722       -0.3131945745       -1.9250519793
 C         -1.1023966410       -1.8017823382       -0.7011477762
 C         -1.3710842400       -1.5653580100       -2.1185929613
 C         -1.6862052315       -2.5685069995       -2.9743976268
 C         -1.7861806078       -3.9053208429       -2.5329854883
 C         -2.1331814233       -5.0015453626       -3.4253020343
 O         -2.2220432688       -6.1650059642       -3.0931562089
 O         -2.3540199413       -4.6145643929       -4.7025167296
 C         -1.5396679084       -4.1803006519       -1.1698675855
 C         -1.2245493373       -3.1985888900       -0.2909970809
 C          2.9816073702       -0.1446182004        1.3449673834
 C          3.6693903653        0.8804851445        1.9631057604
 H          5.4078289590        3.6571041646        3.7094583601
 H          1.2682396147        1.9297237537        4.0952828639
 H          0.0343614554        0.0926691027        2.9811126493
 H          1.6008383773       -2.1678977351        0.4481057011
 H          0.3859459694       -2.1346840712        1.7312403316
 H         -1.6597082816       -1.9705836317        2.1051362233
 H         -3.3717498478       -0.7047729904        3.2578436367
 H         -5.7879306290        2.9869913944        2.3952340401
 H         -3.5711691126        2.1031045461        0.0437271497
 H         -1.8480257753        0.9043965809       -1.1595793701
 H          0.1077557766        1.7715650326        0.3888166307
 H          1.4689142365        3.3947059233       -0.8934429817
 H          4.2136046434        3.1229336693       -4.4508595266
 H          2.7694202228        0.2685265966       -3.4865435565
 H          1.4137282962       -1.3545330911       -2.2133303044
 H         -1.2859322768       -0.5600634937       -2.4966509265
 H         -1.8699710500       -2.3536243166       -4.0154676235
 H         -2.5823679416       -5.3937044905       -5.2310622606
 H         -1.6176497029       -5.2068102748       -0.8446629392
 H         -1.0454068649       -3.4619152848        0.7372103082
 H          3.4648582604       -0.7220714696        0.5701175025
 H          4.6853871271        1.1067806682        1.6815678136
  60
  -107.552672543200       0.111786077342513      !
 O          4.8052700441        3.0727855126        3.5034623493
 C          3.6366191325        2.8115877228        3.6460878386
 O          2.8339827548        3.5499583324        4.4293046390
 C          2.9423446777        1.6808845493        2.9934670618
 C          1.6038841452        1.3942225143        3.2505485969
 C          0.9921530772        0.3363031306        2.6089049475
 C          1.6971728045       -0.4466986705        1.6993589436
 C          0.9942445035       -1.5508819763        0.9545354661
 C          0.0193754358       -0.9459334381       -0.0505034064
 C         -1.4515799214       -0.7190535917        0.3186709103
 C         -1.9544487359       -1.1801746952        1.6126115832
 C         -2.9048899747       -0.5011784384        2.2989822743
 C         -3.4839899520        0.6825921800        1.7911174963
 C         -4.5036765662        1.3635402813        2.5751256290
 O         -4.8893247362        1.0072931612        3.6689166556
 O         -5.0046617807        2.4671336628        1.9752695586
 C         -3.0592428708        1.1451001273        0.5268636435
 C         -2.1099141195        0.4871584613       -0.1829645906
 C          0.7382499059        0.0766317658       -0.8683915865
 C          0.7410722467        1.4202904234       -0.5044825648
 C          1.4944261556        2.3359924706       -1.2113563871
 C          2.2569503297        1.9185009125       -2.2986175329
 C          3.0821423237        2.8646065484       -3.0823623217
 O          3.6936764899        2.5730888477       -4.0797181869
 O          3.0958178975        4.1056692249       -2.5736693009
 C          2.2531175469        0.5752684427       -2.6688494228
 C          1.5053210510       -0.3374490230       -1.9550611656
 C         -1.0169642033       -1.8326501340       -0.7541743476
 C         -1.3080713532       -1.5555579316       -2.1602024815
 C         -1.6848585147       -2.5259822267       -3.0280911533
 C         -1.8204158114       -3.8680707354       -2.6127995701
 C         -2.2511844071       -4.9257433561       -3.5157068371
 O         -2.3802348863       -6.0918370597       -3.2074253146
 O         -2.5052648944       -4.4961649201       -4.7726262621
 C         -1.5189316811       -4.1876915215       -1.2705871268
 C         -1.1399642368       -3.2392688165       -0.3801397305
 C          3.0354947497       -0.1623446199        1.4546382669
 C          3.6566999272        0.8886722847        2.0979782972
 H          3.3430300075        4.2725514877        4.8284894211
 H          1.0522293187        2.0035878979        3.9488110347
 H         -0.0475176219        0.1183748207        2.8078731440
 H          1.7256180096       -2.1479340033        0.4034862783
 H          0.4904496927       -2.2022799298        1.6658221201
 H         -1.5615846924       -2.0883636558        2.0373730852
 H         -3.2523993084       -0.8570572306        3.2574341028
 H         -5.6759822455        2.8607911485        2.5522301823
 H         -3.5137952986        2.0370837485        0.1250210835
 H         -1.8126752901        0.8724478679       -1.1438212214
 H          0.1542867986        1.7448773891        0.3416889622
 H          1.4987887207        3.3753266166       -0.9244353809
 H          3.6578661168        4.6770305608       -3.1199655570
 H          2.8471083778        0.2690660961       -3.5163324591
 H          1.5042935666       -1.3797944565       -2.2395691399
 H         -1.1943886477       -0.5456126844       -2.5179947431
 H         -1.8889647315       -2.2808722245       -4.0585528239
 H         -2.7877672801       -5.2499303077       -5.3116790869
 H         -1.6037578877       -5.2216551007       -0.9717742376
 H         -0.9111244059       -3.5364256786        0.6290359845
 H          3.5916932062       -0.7661354753        0.7524985349
 H          4.6953788270        1.1187996720        1.9168921158
  60
  -107.552671395200       0.111650361207504      !
 O          2.9830949468        3.3755724357        4.7136311929
 C          3.5223940929        2.7736445310        3.8188941653
 O          4.7677702869        3.0668011090        3.4140229069
 C          2.9065223050        1.6592287121        3.0659450155
 C          1.6203089201        1.2517548081        3.4139877391
 C          1.0143972249        0.2150839978        2.7347352412
 C          1.6799194249       -0.4329664784        1.6987906703
 C          0.9930251337       -1.5310763231        0.9309095798
 C          0.0077317027       -0.9249798256       -0.0633631763
 C         -1.4565241399       -0.6875160136        0.3243316732
 C         -1.9511819134       -1.1350808630        1.6259757524
 C         -2.8888431192       -0.4422978777        2.3162560868
 C         -3.4570650730        0.7465756860        1.8086887099
 C         -4.4638613167        1.4428251176        2.5970043271
 O         -4.8537915951        1.0894029094        3.6899049422
 O         -4.9476765382        2.5548507390        2.0001691009
 C         -3.0349882648        1.2011372814        0.5411668457
 C         -2.1026553010        0.5266793502       -0.1753016373
 C          0.7155817050        0.0906414721       -0.8978508843
 C          0.7597436254        1.4284163107       -0.5127062729
 C          1.4986485504        2.3366584526       -1.2416353431
 C          2.2078338385        1.9229286033       -2.3675149325
 C          2.9934193689        2.9283858094       -3.1165951717
 O          3.0730766520        4.0938980734       -2.8190582248
 O          3.6287602889        2.4202691237       -4.1844678041
 C          2.1666735370        0.5862509862       -2.7555869026
 C          1.4296294358       -0.3203289602       -2.0205794877
 C         -1.0470144870       -1.8123219089       -0.7437334884
 C         -1.3584255590       -1.5512285251       -2.1483331510
 C         -1.7113641389       -2.5370161651       -3.0093653289
 C         -1.8055350668       -3.8805308587       -2.5875065255
 C         -2.1946404803       -4.9583511428       -3.4848691132
 O         -2.2808583986       -6.1266580898       -3.1696797018
 O         -2.4604795796       -4.5471458923       -4.7458446783
 C         -1.5083992742       -4.1810188811       -1.2400408948
 C         -1.1565693276       -3.2166544901       -0.3559026046
 C          2.9627407472       -0.0218599197        1.3549942516
 C          3.5767155674        1.0142596943        2.0303568538
 H          5.1164715102        3.8034371472        3.9398199281
 H          1.1150508424        1.7613249728        4.2199768190
 H          0.0147095305       -0.0927536289        3.0048841941
 H          1.7321444165       -2.1064882150        0.3669906820
 H          0.4983953480       -2.2024828324        1.6291054279
 H         -1.5666259148       -2.0471660496        2.0502172923
 H         -3.2344943982       -0.7906398719        3.2781820123
 H         -5.6073177732        2.9618730388        2.5815716692
 H         -3.4764967815        2.1011447675        0.1426492884
 H         -1.8028856975        0.9095979245       -1.1364504733
 H          0.2164227936        1.7502447664        0.3630511702
 H          1.5446316135        3.3752435132       -0.9524679544
 H          4.1248242541        3.1222016020       -4.6337447669
 H          2.7163530473        0.2662782901       -3.6265241190
 H          1.3987821876       -1.3588721774       -2.3175540155
 H         -1.2820420636       -0.5397279867       -2.5113563534
 H         -1.9297799207       -2.3029218419       -4.0395228515
 H         -2.7156120855       -5.3147863404       -5.2789888404
 H         -1.5767594815       -5.2132227866       -0.9310510088
 H         -0.9366882061       -3.5011438460        0.6586926580
 H          3.4836582981       -0.5173403605        0.5483875112
 H          4.5720374913        1.3301581560        1.7612735540
  60
  -107.552673467300       0.111895443935860      !
 O          6.2197870034       -1.5200849955        1.2149810914
 C          5.6742582160       -0.4739032164        1.4631945653
 O          6.3610236194        0.6710146292        1.6030375084
 C          4.2152177633       -0.3092172387        1.6424218159
 C          3.6462513559        0.9295710604        1.9242182080
 C          2.2783317216        1.0381395378        2.0760414337
 C          1.4583781753       -0.0777736135        1.9513245519
 C         -0.0375655626        0.0537486902        2.0557481083
 C         -0.6482962273        0.0865703453        0.6575197171
 C         -2.1656474771       -0.0750377196        0.4791139320
 C         -2.9964254618       -0.3650839642        1.6452237580
 C         -4.2681837382        0.0895622302        1.7522208402
 C         -4.8695501908        0.8600342808        0.7327499540
 C         -6.2471928168        1.2999585527        0.8960324582
 O         -6.9399190579        1.0671362264        1.8643916981
 O         -6.7166393811        2.0177934450       -0.1500290511
 C         -4.1021590521        1.1732297679       -0.4096685449
 C         -2.8259963517        0.7356858260       -0.5427838626
 C          0.0522706407        1.1218891001       -0.1587442630
 C         -0.3390941659        2.4547823852       -0.0619825629
 C          0.3570963896        3.4419174782       -0.7301231116
 C          1.4673559495        3.1066949599       -1.5009304687
 C          2.2534067565        4.1313639728       -2.2228305745
 O          3.2148512451        3.8966591723       -2.9110293378
 O          1.7944925393        5.3799584018       -2.0421103297
 C          1.8627757137        1.7740657946       -1.5986788144
 C          1.1621549417        0.7905832095       -0.9324653763
 C         -1.1332290511       -1.1982765246       -0.0225101003
 C         -0.9210172773       -1.3280925038       -1.4645267288
 C         -0.6741252106       -2.5212343129       -2.0584147316
 C         -0.6306241670       -3.7177855198       -1.3113918546
 C         -0.3828555175       -5.0159954933       -1.9229694809
 O         -0.3376406898       -6.0679241441       -1.3205784689
 O         -0.1993573925       -4.9599583470       -3.2610528762
 C         -0.8565082472       -3.6458858351        0.0806872929
 C         -1.1037596735       -2.4679382588        0.7026320705
 C          2.0324006250       -1.3146357711        1.6744180411
 C          3.3986301708       -1.4320302805        1.5222030310
 H          7.3065577363        0.5020376963        1.4684042978
 H          4.2788072304        1.7978317159        2.0181974226
 H          1.8388620475        2.0018774273        2.2891491056
 H         -0.4312055202       -0.7693995468        2.6475445696
 H         -0.2929907813        0.9905820351        2.5582467429
 H         -2.5848381073       -0.9454509139        2.4530207412
 H         -4.8615291476       -0.1338495289        2.6260452397
 H         -7.6351777967        2.2684681418        0.0286888622
 H         -4.5526680946        1.7717294161       -1.1858992558
 H         -2.2657832165        1.0098878273       -1.4213147434
 H         -1.1988185326        2.7124544657        0.5399227946
 H          0.0506679892        4.4733048421       -0.6562945217
 H          2.3465893500        6.0052388584       -2.5370270837
 H          2.7268500932        1.5319098663       -2.1979611872
 H          1.4761411532       -0.2401254014       -1.0021389202
 H         -0.9400124357       -0.4364708454       -2.0686497371
 H         -0.5123513371       -2.5719487215       -3.1237597639
 H         -0.0388390018       -5.8554246346       -3.5944983585
 H         -0.8346513286       -4.5699653128        0.6390114445
 H         -1.2901937823       -2.4731743563        1.7633298286
 H          1.4028602052       -2.1866398047        1.5704976567
 H          3.8563484185       -2.3856281398        1.3074347760
  60
  -107.552337055600       7.838054714725755E-002 !
 O          6.2413991574       -1.6392484900        1.1381925056
 C          5.7522123113       -0.6055989807        1.5204127765
 O          6.5037507520        0.4562025568        1.8528732778
 C          4.3004759308       -0.3702602829        1.6753355351
 C          3.7899758346        0.8803696841        2.0109846453
 C          2.4262721259        1.0527567522        2.1459596707
 C          1.5532555249       -0.0126250857        1.9586319312
 C          0.0647279717        0.1802514741        2.0801745089
 C         -0.5736151092        0.2043747682        0.6940595920
 C         -2.0875698794        0.0449169400        0.5392688376
 C         -2.9165100571       -0.2699996699        1.6997308364
 C         -4.2330897179        0.0452509117        1.7458122436
 C         -4.8753060016        0.7062299555        0.6749478033
 C         -6.3069692110        0.9560871150        0.7530697404
 O         -7.0132204129        0.6560466627        1.6928655245
 O         -6.8132660616        1.5640905182       -0.3438111323
 C         -4.0931966138        1.1058509135       -0.4306461423
 C         -2.7727890369        0.8086123709       -0.5021046914
 C          0.1123132426        1.2424979835       -0.1336148455
 C         -0.2918377192        2.5721646293       -0.0375709587
 C          0.3820958773        3.5574115412       -0.7281793603
 C          1.4805891972        3.2297883501       -1.5206394912
 C          2.1777975727        4.3170420122       -2.2424856386
 O          1.8723998998        5.4820279167       -2.1826471622
 O          3.2021739090        3.8863987642       -2.9944032076
 C          1.8937960995        1.9032222092       -1.6116422909
 C          1.2143660254        0.9197020854       -0.9208524503
 C         -1.0500276199       -1.0872103145        0.0296649826
 C         -0.8827702947       -1.2294655573       -1.4161723928
 C         -0.7500428557       -2.4377881436       -2.0152707713
 C         -0.7731198868       -3.6347543767       -1.2665207828
 C         -0.6801597916       -4.9487591631       -1.8854857392
 O         -0.6934175528       -6.0013025362       -1.2822713311
 O         -0.5774744759       -4.9088682202       -3.2332876568
 C         -0.9101789303       -3.5449321278        0.1365228088
 C         -1.0417295586       -2.3512895079        0.7637739805
 C          2.0691766427       -1.2607674323        1.6221133918
 C          3.4292515686       -1.4399619982        1.4788295502
 H          7.4420234336        0.2400790551        1.7360807649
 H          4.4642394701        1.7084398397        2.1613282335
 H          2.0335346152        2.0266099356        2.4003428024
 H         -0.3478701796       -0.6127160437        2.7003571872
 H         -0.1450097403        1.1371462302        2.5653766645
 H         -2.4708276811       -0.7644509126        2.5458958961
 H         -4.8315210394       -0.2088813842        2.6076386208
 H         -7.7666635555        1.6865204840       -0.2230411857
 H         -4.5684255842        1.6570924518       -1.2267876254
 H         -2.2005437772        1.1460308346       -1.3505264466
 H         -1.1431079231        2.8255951814        0.5777944653
 H          0.0769752478        4.5908466396       -0.6666811298
 H          3.6163678948        4.6391002558       -3.4445232503
 H          2.7469601881        1.6507593888       -2.2207088504
 H          1.5393110290       -0.1079628201       -0.9873351463
 H         -0.8544635282       -0.3368955181       -2.0187224247
 H         -0.6306121643       -2.5014422539       -3.0854395880
 H         -0.5260498558       -5.8154053402       -3.5710647066
 H         -0.9151074552       -4.4669076995        0.6985397402
 H         -1.1615418978       -2.3388162648        1.8339798991
 H          1.3990627234       -2.0939855049        1.4670659620
 H          3.8404115180       -2.4029043666        1.2170730669
  60
  -107.552078654900       5.962872885284700E-002 !
 O          6.3088435021       -1.6015535426        1.2676982945
 C          5.8016488658       -0.5464097123        1.5566253274
 O          6.5352374945        0.5526038597        1.7955511083
 C          4.3459787744       -0.3226494676        1.6905959394
 C          3.8180912486        0.9351096503        1.9682716211
 C          2.4521636211        1.0947205438        2.0941766240
 C          1.5932905893        0.0106504400        1.9520001522
 C          0.1029251793        0.1900087807        2.0688307080
 C         -0.5359259058        0.2008944844        0.6817016790
 C         -2.0487203739        0.0374822065        0.5323656987
 C         -2.8762483785       -0.2807476129        1.6923456625
 C         -4.1986733580        0.0103594295        1.7285154448
 C         -4.8473191137        0.6486283111        0.6473803834
 C         -6.2843723954        0.8682447396        0.7133044222
 O         -6.9913444551        0.5584726338        1.6495585962
 O         -6.7947624367        1.4616171160       -0.3898401097
 C         -4.0665449368        1.0539995482       -0.4573948063
 C         -2.7404477390        0.7810116972       -0.5188205619
 C          0.1400993795        1.2454617899       -0.1465645372
 C         -0.2856242972        2.5688695942       -0.0560094945
 C          0.3835209993        3.5648633085       -0.7353970836
 C          1.5006832681        3.2549324773       -1.5087252256
 C          2.1964186058        4.3554665122       -2.2115679151
 O          1.8381651277        5.5068233316       -2.2003977069
 O          3.2914164500        3.9561343545       -2.8761962049
 C          1.9328402925        1.9342828061       -1.5976691507
 C          1.2561408385        0.9392303862       -0.9203762949
 C         -1.0007572700       -1.0954840295        0.0264242483
 C         -0.8535810929       -1.2461784388       -1.4204986108
 C         -0.8035789891       -2.4604542536       -2.0201577113
 C         -0.8810908165       -3.6535186857       -1.2682497512
 C         -0.9018195130       -4.9707311115       -1.8867534760
 O         -0.9554813494       -6.0202311539       -1.2802603857
 O         -0.8617686488       -4.9378361063       -3.2381525888
 C         -0.9544159136       -3.5552529604        0.1393745457
 C         -1.0052892239       -2.3556753192        0.7665334383
 C          2.1260073838       -1.2432717623        1.6676369050
 C          3.4891099835       -1.4109522148        1.5378765715
 H          7.4771245170        0.3420583991        1.6995425861
 H          4.4809901718        1.7778590352        2.0833221498
 H          2.0459919687        2.0731687923        2.3064075547
 H         -0.3030914522       -0.6031419157        2.6929251034
 H         -0.1166602257        1.1476134368        2.5481126674
 H         -2.4248478206       -0.7580512170        2.5453091603
 H         -4.7968774954       -0.2452122438        2.5900505879
 H         -7.7513063819        1.5651345835       -0.2764819285
 H         -4.5473582955        1.5906820459       -1.2600781030
 H         -2.1691625801        1.1203161644       -1.3671260235
 H         -1.1487220385        2.8089671600        0.5481545535
 H          0.0617151205        4.5934608549       -0.6779793714
 H          3.7041967064        4.7176367691       -3.3126380493
 H          2.7990275735        1.6956772540       -2.1938406529
 H          1.5957115433       -0.0839125564       -0.9849088202
 H         -0.7802685057       -0.3557769239       -2.0227962281
 H         -0.7068283667       -2.5323282104       -3.0921067105
 H         -0.8876010409       -5.8458874003       -3.5748624367
 H         -0.9780091582       -4.4751559430        0.7042221150
 H         -1.0779781768       -2.3348706011        1.8408579215
 H          1.4672957489       -2.0906981336        1.5438106565
 H          3.9139639802       -2.3786967704        1.3191375426
  60
  -107.549919318600       6.068666852156433E-003 !
 O          6.2202820306        1.2911685369        1.4430878318
 C          5.2342466043        1.7182253447        1.9916310406
 O          5.2352106798        2.8924563384        2.6412781675
 C          3.9245244767        1.0338663310        2.0164721330
 C          2.8013528368        1.6231370539        2.5899350593
 C          1.5864404802        0.9695487822        2.5469249238
 C          1.4679937668       -0.2740071193        1.9358940593
 C          0.1219322585       -0.9309460521        1.8010574076
 C         -0.5442248253       -0.5686509732        0.4633068811
 C         -2.0786837140       -0.4500906608        0.4007330360
 C         -2.8616265237       -0.7641285310        1.5943725527
 C         -3.9822917926       -0.0758923413        1.9194269754
 C         -4.4733825473        0.9692532375        1.1060329977
 C         -5.6839495656        1.6712967142        1.5080310167
 O         -6.3204477224        1.4364448724        2.5136961039
 O         -6.0584377799        2.6451225006        0.6478393461
 C         -3.7710227430        1.2834555896       -0.0767379370
 C         -2.6460324196        0.6126924779       -0.4277520564
 C          0.2659313512        0.4250885494       -0.2993085226
 C          0.1228115636        1.7865740407       -0.0427301556
 C          0.9639436837        2.6999561190       -0.6423102267
 C          1.9634101524        2.2671864132       -1.5109675475
 C          2.8752316502        3.2735912975       -2.0978435604
 O          2.8444900783        4.4523637332       -1.8449902952
 O          3.7664164852        2.7499194545       -2.9519671088
 C          2.0926064512        0.9098858248       -1.7915967752
 C          1.2500895203       -0.0008495846       -1.1874896153
 C         -1.3087134391       -1.6437442625       -0.3291410371
 C         -1.2213828512       -1.6072996025       -1.7889073140
 C         -1.2037255913       -2.7334093888       -2.5440849788
 C         -1.2934975442       -4.0126626469       -1.9556846668
 C         -1.2801780670       -5.2392742274       -2.7403739718
 O         -1.3570653029       -6.3580849671       -2.2782958855
 O         -1.1667508297       -5.0312446605       -4.0715166269
 C         -1.4168353485       -4.0961586718       -0.5511727131
 C         -1.4385911206       -2.9889360139        0.2289229969
 C          2.6032168518       -0.8762208017        1.4028811772
 C          3.8202858959       -0.2286061989        1.4364625492
 H          6.1141849691        3.2981055293        2.5812155521
 H          2.8865504996        2.5930155919        3.0533582632
 H          0.7145520569        1.4337960227        2.9842988927
 H          0.2477324689       -2.0127419722        1.8688959625
 H         -0.5167451259       -0.6011299436        2.6230603349
 H         -2.5315710726       -1.5589710953        2.2418638190
 H         -4.5377600465       -0.3173109134        2.8132767137
 H         -6.8670421721        3.0629018152        0.9797965506
 H         -4.1495945711        2.0722980098       -0.7077272154
 H         -2.1315810511        0.8896541864       -1.3328374108
 H         -0.6470678286        2.1217380184        0.6362854045
 H          0.8720028238        3.7565471305       -0.4431420293
 H          4.3457848016        3.4495866152       -3.2917673195
 H          2.8612744988        0.5767847298       -2.4703416173
 H          1.3573147507       -1.0550311540       -1.3957556083
 H         -1.1442485165       -0.6493390557       -2.2754859472
 H         -1.1250731208       -2.6633086628       -3.6177269597
 H         -1.1677847313       -5.8869169562       -4.5257403306
 H         -1.5040564031       -5.0798390341       -0.1145918238
 H         -1.5496588732       -3.1060495194        1.2937758307
 H          2.5260049990       -1.8541554332        0.9505644610
 H          4.7049356983       -0.6782378879        1.0125460508
