  78
       -124.51964829
 N         -1.8981149286        6.6522395727       -0.7515373779
 C         -2.2545065092        5.5686453220       -0.6398160772
 C         -2.6938248079        4.2321169586       -0.4991075625
 C         -2.3046139163        3.2685613954       -1.4307449795
 C         -2.7313832986        1.9645230906       -1.2891576178
 C         -3.5477965347        1.6122736712       -0.2166285838
 N         -3.9402559471        0.2761197539       -0.0525200669
 C         -3.0730673051       -0.7864552799        0.1221941280
 C         -1.6239948885       -0.6796430242        0.1416597481
 C         -0.8805121043       -1.7234790052       -0.4105850069
 C          0.4966462142       -1.6767306122       -0.4179623149
 C          1.1772179512       -0.5884255813        0.1280014624
 C          2.6436305609       -0.5298054911        0.1066204487
 C          3.3052877398        0.6701167951       -0.1498691982
 C          4.6835074615        0.7280358419       -0.1808351573
 C          5.4376803085       -0.4172171856        0.0617684200
 N          6.8359836887       -0.3616477799        0.0408149417
 C          7.6685427278       -1.2161152773       -0.6554682297
 C          7.3478269570       -2.2531369822       -1.5196470730
 C          8.3874507605       -2.9396245068       -2.1172857341
 C          9.7170999119       -2.6032734720       -1.8731407667
 C         10.0417515180       -1.5566655798       -1.0335401655
 C          9.0141466518       -0.8513518511       -0.4213548680
 C          8.9827596951        0.2763483402        0.4674473891
 C          9.9697408639        1.0509227712        1.0625277760
 C          9.5882314814        2.0744591004        1.9066057448
 C          8.2428916352        2.3201219713        2.1717861925
 C          7.2428906436        1.5629761777        1.5921243046
 C          7.6193919558        0.5481926075        0.7241375600
 C          4.7857341950       -1.6190395924        0.3268930406
 C          3.4072362571       -1.6724765986        0.3404154831
 C          0.4312374434        0.4384902269        0.7039126913
 C         -0.9477701264        0.3941951845        0.7185311328
 N         -3.7101766643       -1.9154794991        0.2868983125
 C         -5.0345530668       -1.6159507519        0.2296674350
 C         -6.1359574324       -2.4999746026        0.4005377659
 C         -5.9393160128       -3.8583148790        0.6699082543
 C         -7.0148861675       -4.6863324555        0.8721841468
 C         -8.3040895395       -4.1605206407        0.8121825894
 C         -8.5087033463       -2.8277712876        0.5414559052
 C         -7.4358527627       -1.9513097604        0.3171330345
 C         -7.6182745907       -0.5483009734       -0.0119928735
 C         -8.8944943176        0.0030411436       -0.1942438004
 C         -9.0777184443        1.3160913898       -0.5577516621
 C         -7.9780282786        2.1391119048       -0.7783211163
 C         -6.7109749528        1.6409905848       -0.6011923867
 C         -6.5025723267        0.3146814188       -0.1961506259
 C         -5.2129418136       -0.2526340185        0.0061589808
 C         -3.9355500346        2.5745119767        0.7160572883
 C         -3.5136713415        3.8794671429        0.5751660088
 H         -1.6744727716        3.5507142914       -2.2606597923
 H         -2.4364057329        1.2100907901       -2.0026984519
 H         -1.4079827461       -2.5636567392       -0.8344900361
 H          1.0558093938       -2.4812042211       -0.8722062475
 H          2.7315281067        1.5614014565       -0.3576035799
 H          5.1850422050        1.6563845622       -0.4099900506
 H          6.3203619376       -2.5096379527       -1.7299477705
 H          8.1637975344       -3.7530068508       -2.7918514838
 H         10.5010800144       -3.1663457410       -2.3573123557
 H         11.0715805169       -1.2851563255       -0.8568568909
 H         11.0126684881        0.8492781390        0.8698767780
 H         10.3397701281        2.6898972173        2.3782923534
 H          7.9751704736        3.1179834163        2.8488008572
 H          6.2040171011        1.7497651567        1.8189495583
 H          5.3677041473       -2.5033643072        0.5394247985
 H          2.9137478338       -2.6053756512        0.5691296282
 H          0.9395965180        1.2691955282        1.1710407303
 H         -1.4954389029        1.1856296218        1.2085234696
 H         -4.9244952061       -4.2214380865        0.7177382255
 H         -6.8688108296       -5.7354917139        1.0822251673
 H         -9.1535080409       -4.8064706691        0.9812145521
 H         -9.5240963432       -2.4659501782        0.5088600873
 H         -9.7682555795       -0.6137412115       -0.0600832889
 H        -10.0766648720        1.7048052137       -0.6890121506
 H         -8.1184367203        3.1623689942       -1.0935343896
 H         -5.8623897751        2.2775014083       -0.7971422152
 H         -4.5654619298        2.2867963421        1.5449097483
 H         -3.8066213517        4.6298224687        1.2941223066
