  103
       -158.02810136
 C         -0.2416419033        6.5580601437        6.1257236711
 C          0.9347384431        6.4615192967        6.8541265452
 N          1.8836004725        5.5828680347        6.5777167605
 C          1.7045161094        4.7681218337        5.5567085303
 C          0.5702962827        4.7769065726        4.7422565891
 C          0.4347891452        3.8492813135        3.6138989215
 C          1.5226303313        3.5691604511        2.7893460874
 C          1.3877092815        2.7011075740        1.7246258405
 C          0.1723869442        2.0811865935        1.4463726972
 Si         0.0072642075        0.9300067679       -0.0474521881
 C         -0.1920476475        1.9521459665       -1.6289295443
 C          0.1909486264        3.2882127687       -1.6897497217
 C          0.0450172859        4.0229889575       -2.8497888320
 C         -0.4873143047        3.4367636532       -3.9961993101
 C         -0.6487260760        4.2137802030       -5.2298748091
 C         -0.3686934657        3.6697357669       -6.4826150598
 C         -0.5392687955        4.4486484232       -7.6132169553
 C         -0.9832881712        5.7531401312       -7.4550175432
 N         -1.2602647088        6.2820591971       -6.2748849658
 C         -1.0995044529        5.5351723990       -5.2003291840
 C         -0.8717711010        2.0983025881       -3.9433967479
 C         -0.7279516114        1.3744141186       -2.7770022139
 C         -1.5281436851       -0.1605511668        0.1393797539
 C         -1.4425637367       -1.4917781034        0.5332822186
 C         -2.5728006344       -2.2722170052        0.6777798500
 C         -3.8310962249       -1.7258357428        0.4398921523
 N         -4.9824947581       -2.5058540490        0.5917216797
 C         -6.0075505709       -2.6204157791       -0.3267611241
 C         -6.1225115292       -2.0719700276       -1.5962317665
 C         -7.2544877728       -2.3730717708       -2.3292087360
 C         -8.2489944045       -3.2066365740       -1.8224308568
 C         -8.1279480348       -3.7762420259       -0.5707486694
 C         -6.9989624468       -3.4886962322        0.1849569637
 C         -6.5434187564       -3.9097228511        1.4803715893
 C         -7.0808307208       -4.7339276436        2.4602883308
 C         -6.3750093572       -4.9146321891        3.6328554908
 C         -5.1562743747       -4.2728666647        3.8412751671
 C         -4.6014729476       -3.4479732981        2.8815388702
 C         -5.2936918084       -3.2829402516        1.6903303871
 C         -3.9331510905       -0.3937123876        0.0459627422
 C         -2.7928652872        0.3683519314       -0.1064484982
 C          1.5676539453       -0.1348250098       -0.1544885557
 C          2.1009028876       -0.7172910535        0.9924494541
 C          3.2312942764       -1.5073216912        0.9387655721
 C          3.8718313914       -1.7223244534       -0.2793052742
 N          5.0228664546       -2.5146536709       -0.3420642455
 C          5.2453857828       -3.5477893088       -1.2315009049
 C          4.4090397146       -4.0702844049       -2.2077393634
 C          4.8732380239       -5.1386877315       -2.9510216402
 C          6.1345139584       -5.6867981790       -2.7286667249
 C          6.9605852114       -5.1883703779       -1.7412540694
 C          6.5160153380       -4.1146786431       -0.9810769428
 C          7.0839503421       -3.3769027606        0.1125804983
 C          8.2957789210       -3.4510041393        0.7866241036
 C          8.5426084601       -2.5515298790        1.8043660908
 C          7.6060573213       -1.5767999966        2.1409706418
 C          6.3935549211       -1.4832599817        1.4846971537
 C          6.1282759009       -2.4016737936        0.4789291564
 C          3.3561147869       -1.1379094292       -1.4332474069
 C          2.2158488754       -0.3622999386       -1.3641190777
 C         -0.9057555968        2.3565273765        2.2812368269
 C         -0.7822286411        3.2265118811        3.3464758086
 C         -0.4241726673        5.7029276996        5.0535394282
 H         -0.9916752580        7.2885130112        6.3862411014
 H          1.1314698177        7.1117664239        7.6958768888
 H          2.5013092801        4.0554256812        5.3839888478
 H          2.4705969678        4.0528955464        2.9755739737
 H          2.2413958056        2.4950660437        1.0938662808
 H          0.6068357132        3.7586866755       -0.8104556038
 H          0.3627213305        5.0552628126       -2.8784214173
 H         -0.0028458039        2.6556232903       -6.5632316621
 H         -0.3260057794        4.0550994283       -8.5950634554
 H         -1.1256066466        6.4070688033       -8.3048595146
 H         -1.3593030825        6.0076263053       -4.2615252368
 H         -1.3066440837        1.6324017730       -4.8163637298
 H         -1.0418673597        0.3401451707       -2.7494279814
 H         -0.4709657877       -1.9271166412        0.7165513385
 H         -2.4890167835       -3.3114442208        0.9593178291
 H         -5.3487916359       -1.4396475166       -2.0052241926
 H         -7.3688344214       -1.9551599556       -3.3184864058
 H         -9.1203070984       -3.4148860556       -2.4250561922
 H         -8.8903451480       -4.4358449237       -0.1848867187
 H         -8.0334646966       -5.2174170117        2.3053732182
 H         -6.7736087759       -5.5537971089        4.4063492272
 H         -4.6344001082       -4.4201380260        4.7752782295
 H         -3.6653760993       -2.9405606347        3.0604759793
 H         -4.9086425647        0.0377465630       -0.1232290893
 H         -2.8819847324        1.3988777292       -0.4199771871
 H          1.6166903121       -0.5484857131        1.9439103938
 H          3.6179585086       -1.9735757154        1.8327908700
 H          3.4220396555       -3.6658524861       -2.3750060162
 H          4.2419753166       -5.5605343148       -3.7191387597
 H          6.4618031507       -6.5192663254       -3.3331905315
 H          7.9308854919       -5.6238048004       -1.5564354645
 H          9.0280405479       -4.1955569720        0.5133026363
 H          9.4770972741       -2.5936734820        2.3434237101
 H          7.8337307834       -0.8755651572        2.9301575802
 H          5.6832393676       -0.7115290793        1.7407556858
 H          3.8647966914       -1.2826244302       -2.3748596232
 H          1.8260878694        0.0894838552       -2.2648960387
 H         -1.8551029864        1.8758433783        2.0936289886
 H         -1.6295163206        3.4114432902        3.9918812550
 H         -1.3161839862        5.7635066150        4.4464818379
