72
 energy: -107.696052960746 gnorm: 0.000062354807 xtb: 6.7.1 (edcfbbe)
C           -7.30314811706330        3.23043308051518       -1.30365406088265
C           -7.76048910498346        1.94001619492143       -1.51781186308874
C           -7.02973606060531        0.85513602757024       -1.07303064534454
C           -5.82610684631499        1.04793027042437       -0.39446092306632
N           -5.08533271495895       -0.04853700681855        0.06265527524855
C           -5.74223046232093       -1.17501933706205        0.57275624287041
C           -6.89656929557411       -1.03316788591793        1.34314457883853
C           -7.54304007147417       -2.14798093068485        1.84134143559749
C           -7.04848741576191       -3.41774837195835        1.58981293592323
C           -5.89974504421790       -3.56432260893817        0.82897744272913
C           -5.25112863633183       -2.45599356711657        0.31939331704653
C           -3.68661392325618       -0.01802454497739        0.01496357806214
C           -3.02562155153567        0.57985680184497       -1.05827806565500
C           -1.64610277834025        0.61166059139348       -1.09919586961575
C           -0.88969811910138        0.04107147735144       -0.08029006467419
C            0.59098725297221        0.07212543947631       -0.13168093613347
C            1.28542295687456        1.14803566226722        0.43590954968650
C            0.60729896589438        2.22295847289712        1.06932570329023
C            1.29225093842770        3.26351441105473        1.61708517452328
C            2.70126409784093        3.29453617550902        1.56524475990251
C            3.38931590946685        2.28395856251709        0.96742335729884
C            2.71391180392656        1.17978050756556        0.38303893246651
C            3.41087827314749        0.13405093347882       -0.23543005037070
C            4.89116056633747        0.17506133738296       -0.30118218201647
C            5.51821677829568        0.80575845034225       -1.39667732785886
C            6.87980894728642        0.86324891501824       -1.48101800386599
C            7.69251259882855        0.29519934834452       -0.47663035169177
C            9.10134277095123        0.34066807465735       -0.53250171149294
C            9.85797268595599       -0.21894282714332        0.45903698430036
C            9.24066670429530       -0.85040332950896        1.55107363623955
C            7.87771316889347       -0.91151029461762        1.63391809384225
C            7.06810512295512       -0.34270337247360        0.62764998881760
C            5.66007896305206       -0.38655291347034        0.68630911762614
C            2.71714236510009       -0.94273898916075       -0.80179947686842
C            3.39546379235116       -2.01735078278598       -1.43578443746902
C            2.71015161472810       -3.05772342928310       -1.98356936611983
C            1.30112656931231       -3.08869839619956       -1.93143415275086
C            0.61340488620013       -2.07818977011431       -1.33324183269377
C            1.28859125914158       -0.97407933497804       -0.74875354017464
C           -1.55015430398259       -0.55925193840514        0.98708099508080
C           -2.92936101188396       -0.58569392362877        1.03998147597250
C           -5.37227092703784        2.34945932902873       -0.17881982707792
C           -6.10567051947075        3.42780289260926       -0.63505014457918
H           -7.87573136019809        4.07561861458016       -1.65525213490723
H           -8.69004432296356        1.77568513513462       -2.04345684707635
H           -7.38464970061068       -0.15005575584247       -1.24917191931200
H           -7.27961577831323       -0.04402913345045        1.54852241616441
H           -8.43522372349112       -2.02312832980276        2.43784163769799
H           -7.55446790222772       -4.28644360951483        1.98363655268960
H           -5.50922087979420       -4.55050095274818        0.62324238146090
H           -4.36030944285008       -2.57428897755994       -0.28038798329667
H           -3.60159563137751        1.01758063755357       -1.86064404662712
H           -1.14412321912278        1.07646520934847       -1.93579140160495
H           -0.47200888679459        2.19584442681342        1.10761554958279
H            0.76300141785740        4.07485923224339        2.09586689542890
H            3.22850025432100        4.12833269562096        2.00605281133275
H            4.46881146454130        2.30511857651605        0.92776788988845
H            4.89894063778414        1.24288229231965       -2.16725164904075
H            7.35575015515334        1.34794092149667       -2.32212984248329
H            9.57177354956504        0.82763260815652       -1.37544881911702
H           10.93676378174434       -0.18008571525075        0.41052594633554
H            9.85422869651962       -1.28764473793455        2.32577713992010
H            7.39779268765267       -1.39643409665615        2.47259722547058
H            5.18594629439414       -0.87184212768164        1.52853480364448
H            4.47491362507865       -1.99178383592028       -1.47428198671071
H            3.23961301824752       -3.86882923156665       -2.46246076409571
H            0.77417840730166       -3.92267090724088       -2.37232791614050
H           -0.46597058531725       -2.09819557692219       -1.29227842743909
H           -0.97327640388709       -1.00104200595956        1.78705564487565
H           -3.43054760661865       -1.04629613277197        1.87892671717862
H           -4.44364504955793        2.50734069697917        0.35034538587682
H           -5.74306458506204        4.43034067912451       -0.45925500157385
