72
 energy: -107.630262116616 gnorm: 0.000047779093 xtb: 6.7.1 (edcfbbe)
C           -7.21811591002478       -3.66631347259732       -0.55340971896110
C           -7.73392996990508       -2.48130956864151       -1.05427838077293
C           -7.06067840107235       -1.28991252054195       -0.86541166407788
C           -5.85624238249443       -1.26814955129829       -0.16100024788040
N           -5.17469507762195       -0.06184156724786        0.03967270139462
C           -5.89702650356846        1.11451741498159        0.27976097022682
C           -7.04519785301414        1.09084672983943        1.07195681148457
C           -7.75333694362638        2.25440945456082        1.30295474781010
C           -7.32888717019004        3.45497846947492        0.75556599847774
C           -6.18845742149473        3.48353657675106       -0.03156709930104
C           -5.47615102094601        2.32473540583866       -0.27275064794676
C           -3.78331719470341       -0.02825878479473        0.00872673085347
C           -3.06420716488075       -0.84964454138837       -0.86778690743525
C           -1.69055851758056       -0.81997900223121       -0.88754033719379
C           -0.96305969744162        0.04299107100086       -0.05100528837912
C            0.48598936417664        0.07882345771238       -0.08243603608777
C            1.16980491027888        1.32889689342311       -0.21184420292653
C            0.48661854345013        2.53248851069469       -0.41703082000260
C            1.15285965914770        3.75300854625085       -0.45222545736616
C            2.52219748426276        3.79398314711446       -0.28234129568948
C            3.23595193746162        2.60736865067636       -0.15987523738548
C            2.59633761323854        1.36196222401027       -0.18594623695243
C            3.33693691544455        0.14224746836657       -0.17146523702943
C            4.79325293417505        0.18538539471664       -0.25770997441809
C            5.41541622576235        0.85408025138243       -1.34199136325145
C            6.77226349573536        0.89436858923517       -1.46104946146811
C            7.60824929290257        0.29045542757920       -0.49376110551634
C            9.01235495239048        0.32576816309619       -0.58113467149236
C            9.78856347755182       -0.26614017383064        0.37973297626729
C            9.19054549017608       -0.92019404816949        1.46764160547420
C            7.82874086505287       -0.97556615637461        1.57845281036080
C            7.00004474753014       -0.37530184154836        0.60446895783208
C            5.59738290436072       -0.41750944073094        0.69129854503600
C            2.65747678043814       -1.10987278181129       -0.08937308282140
C            3.34677566914010       -2.32810967855763       -0.13086784263554
C            2.69300586208917       -3.54128816253958        0.04842981431173
C            1.33337889549325       -3.55698509734957        0.28683405491560
C            0.61517631749491       -2.36597301925889        0.27290673378191
C            1.23416977514682       -1.13743503986346        0.01933331068769
C           -1.69684469193998        0.86877970549713        0.81680642180489
C           -3.06981206226580        0.82890552843271        0.85508239721894
C           -5.34312108793978       -2.46334550022928        0.34483810398246
C           -6.02042305185436       -3.65044291493771        0.14398228743804
H           -7.74602627139372       -4.59572478287916       -0.70475042738701
H           -8.66397881900537       -2.48527555926964       -1.60359674614977
H           -7.45858300417234       -0.36911574233344       -1.26614722318899
H           -7.37180025052371        0.15773516115000        1.50714079670167
H           -8.63831244329574        2.22469438954248        1.92153771758571
H           -7.88383451243065        4.36236392397941        0.94027054901341
H           -5.85473613824624        4.41369939327766       -0.46767174669721
H           -4.59419266545655        2.34560420036780       -0.89615800592029
H           -3.60085729639560       -1.49645201714964       -1.54672501788477
H           -1.15561967471858       -1.43270122936065       -1.59843503807856
H           -0.58315416179330        2.51897735125179       -0.55893765069222
H            0.59058619769242        4.66405254136494       -0.59759636801032
H            3.04645432401462        4.73840110001404       -0.26315910106164
H            4.30817751056914        2.64926596373044       -0.04133360173374
H            4.78732602440078        1.30467807535360       -2.09772872466756
H            7.23141811081193        1.38892922456220       -2.30610243362379
H            9.46873864486103        0.83166631276384       -1.42082809358474
H           10.86619852202300       -0.23319391892805        0.30715498389704
H            9.81713787209857       -1.38043639018024        2.21847580534980
H            7.36381136158801       -1.48034431256042        2.41400849914122
H            5.14460658512916       -0.90767537593269        1.54241588437250
H            4.41166764891829       -2.32748395775207       -0.30735408315275
H            3.25658776623099       -4.46243288819552        0.01633132208410
H            0.81917675500764       -4.48888787790170        0.47227090232534
H           -0.44550991144268       -2.39521916403160        0.47016305372127
H           -1.16394063519788        1.50644184691758        1.50692576138203
H           -3.60917356061315        1.44809535186361        1.55721119734414
H           -4.41761774954841       -2.45094458546714        0.90169825809856
H           -5.61470449760776       -4.56831520162019        0.54358104315587
