  72
       -107.58753442
 C         -7.2023836525       -3.6680695046       -0.5722104246
 C         -7.7236331343       -2.4808036724       -1.0608270961
 C         -7.0560485499       -1.2884749681       -0.8607828911
 C         -5.8515903064       -1.2678550064       -0.1568597251
 N         -5.1721774403       -0.0629087335        0.0502005114
 C         -5.8935776455        1.1130349810        0.2855064777
 C         -7.0533857803        1.0885664797        1.0602834352
 C         -7.7620533984        2.2522945719        1.2865847189
 C         -7.3262922251        3.4545966842        0.7532486685
 C         -6.1735955998        3.4845550234       -0.0149900017
 C         -5.4613288983        2.3254658281       -0.2525997397
 C         -3.7803485934       -0.0297286352        0.0198058807
 C         -3.0619941317       -0.8559810145       -0.8515323249
 C         -1.6884111147       -0.8275901835       -0.8702127407
 C         -0.9621573978        0.0423874735       -0.0411997683
 C          0.4859872872        0.0806249508       -0.0752463860
 C          1.1657043245        1.3307733901       -0.2166964012
 C          0.4770460548        2.5299080046       -0.4262182439
 C          1.1397737897        3.7518250057       -0.4733289726
 C          2.5090326491        3.7974877295       -0.3075674156
 C          3.2270386582        2.6143972894       -0.1764220975
 C          2.5914477159        1.3675314936       -0.1944955993
 C          3.3352795815        0.1493774926       -0.1711397978
 C          4.7886911627        0.1939833066       -0.2569557125
 C          5.4119996421        0.8856766623       -1.3261452991
 C          6.7684393926        0.9279219492       -1.4430455697
 C          7.6032333277        0.3013721100       -0.4896386752
 C          9.0065754476        0.3363315822       -0.5767768526
 C          9.7817920646       -0.2818052952        0.3678629051
 C          9.1830995302       -0.9617885094        1.4388237760
 C          7.8216076476       -1.0155889314        1.5499406891
 C          6.9940751240       -0.3890423097        0.5922692140
 C          5.5922757960       -0.4307674335        0.6789891406
 C          2.6580336449       -1.1037179074       -0.0781308548
 C          3.3483392698       -2.3207263826       -0.1157346846
 C          2.6959742730       -3.5332272086        0.0737861704
 C          1.3375763186       -3.5493684252        0.3165660805
 C          0.6175210116       -2.3596309969        0.2957364541
 C          1.2358273447       -1.1329725070        0.0342769226
 C         -1.6951473938        0.8739444336        0.8205583001
 C         -3.0679104397        0.8322850985        0.8608378209
 C         -5.3341762326       -2.4654896927        0.3381985712
 C         -6.0056961122       -3.6533594109        0.1260395751
 H         -7.7252002271       -4.5980870080       -0.7339242934
 H         -8.6535359567       -2.4835184514       -1.6098050705
 H         -7.4577629615       -0.3655351020       -1.2527502996
 H         -7.3878197570        0.1536434119        1.4855409868
 H         -8.6563085357        2.2211747631        1.8908981584
 H         -7.8812849577        4.3618513799        0.9346399196
 H         -5.8301703569        4.4160168807       -0.4397224131
 H         -4.5696977287        2.3469454229       -0.8619801646
 H         -3.5992497312       -1.5066674824       -1.5259534892
 H         -1.1529749459       -1.4458637019       -1.5753158269
 H         -0.5927675556        2.5110223765       -0.5640398146
 H          0.5746382391        4.6597363242       -0.6240112556
 H          3.0299853795        4.7433148840       -0.2965434952
 H          4.2981369942        2.6613783436       -0.0561980055
 H          4.7844345665        1.3492990002       -2.0738431905
 H          7.2288640648        1.4399693126       -2.2765891264
 H          9.4631349485        0.8622763592       -1.4035993617
 H         10.8589645433       -0.2494560275        0.2953541847
 H          9.8089115096       -1.4430970640        2.1763859218
 H          7.3558269063       -1.5400798691        2.3723712565
 H          5.1386788631       -0.9342987022        1.5209864156
 H          4.4112273581       -2.3208845320       -0.3001175056
 H          3.2600370462       -4.4537542268        0.0459780463
 H          0.8252393576       -4.4802491196        0.5096457534
 H         -0.4424060027       -2.3876146631        0.4954475896
 H         -1.1621587085        1.5176141924        1.5044158544
 H         -3.6081575943        1.4552129038        1.5587005627
 H         -4.4086392830       -2.4534878544        0.8946865877
 H         -5.5951301581       -4.5729738305        0.5158667984
