72
 energy: -107.630231115882 gnorm: 0.000039033081 xtb: 6.7.1 (edcfbbe)
C           -7.23029222776922       -3.65700834395631       -0.34828517301824
C           -7.73848687743813       -2.49804114109051       -0.91369110640733
C           -7.06012883254928       -1.30135126978557       -0.78590545259365
C           -5.85831316235419       -1.24792793664336       -0.07887327633906
N           -5.17255490914884       -0.03495635771368        0.06160456734281
C           -5.89296088889746        1.15183658457584        0.24996479693935
C           -7.04013180261941        1.16372600782849        1.04402051713983
C           -7.74790682174759        2.33642960391562        1.22410717972017
C           -7.32365467442152        3.51165317826843        0.62404811224589
C           -6.18426234335525        3.50494922419047       -0.16509268532388
C           -5.47273388999359        2.33633300963884       -0.35622370043881
C           -3.78151415933430       -0.00718414222707        0.02244355616041
C           -3.06957942273694       -0.87826695338643       -0.81087861765519
C           -1.69582048972309       -0.85599375995843       -0.83781091549904
C           -0.96150864914845        0.05030394661687       -0.05526764219604
C            0.48797596492644        0.07897133220354       -0.09529589947055
C            1.17453191056822        1.31531150521540       -0.30989802615757
C            0.49252839286764        2.50421930590732       -0.59092135981288
C            1.16105637880448        3.71821202341126       -0.70949810109079
C            2.53113637157955        3.76689534841482       -0.54807923713689
C            3.24288881500115        2.58968553499388       -0.34787553783496
C            2.60126069363325        1.34637699633380       -0.29016351156584
C            3.33882571151560        0.12791800800524       -0.19581847858111
C            4.79492386946946        0.16026712535451       -0.28178646245227
C            5.42319350760306        0.76456703745110       -1.39987877476882
C            6.78055715619257        0.79639114124594       -1.51503545507911
C            7.61151893240737        0.24467047637776       -0.51285626215783
C            9.01595025700042        0.27249237145475       -0.59644084635237
C            9.78715080507080       -0.27220412088937        0.39595706924258
C            9.18332549665780       -0.86956029697847        1.51286203712796
C            7.82099280508387       -0.91418753706561        1.62214412125322
C            6.99736282857064       -0.36096850862234        0.61646307330102
C            5.59444272970497       -0.39223866697851        0.70167146325283
C            2.65532159791948       -1.11453674338260       -0.03293163783681
C            3.33999315498841       -2.33554889255094       -0.00054613201623
C            2.68265914203929       -3.53277937660233        0.25671906827097
C            1.32385014747871       -3.52874391294751        0.50005824035753
C            0.60960349379057       -2.33843702147137        0.41350502794137
C            1.23231664704012       -1.13051258940014        0.08160894724357
C           -1.68777209496482        0.92655403064412        0.76782716777511
C           -3.06067013799288        0.89274791195531        0.81655987846219
C           -5.35224470948880       -2.41689432799393        0.49100814583174
C           -6.03465866566898       -3.60986752676469        0.35121417740926
H           -7.76226757747105       -4.59064513323365       -0.45200154730091
H           -8.66655297531944       -2.52699803207674       -1.46562215102063
H           -7.45229425651082       -0.40116603721345       -1.23612224916515
H           -7.36593757872166        0.25093645274591        1.52094248717511
H           -8.63225676643430        2.33420297016708        1.84432841139475
H           -7.87777033214144        4.42664490463806        0.76967696126472
H           -5.85080156458591        4.41491496372778       -0.64210345400215
H           -4.59189735006328        2.32942321188995       -0.98152822014996
H           -3.61178011810195       -1.55922884707541       -1.45084119695744
H           -1.16656643489605       -1.51090940574906       -1.51454336108910
H           -0.57805220797988        2.48339094222458       -0.72583222485786
H            0.60017917480827        4.61891331788822       -0.91304917591115
H            3.05748404308952        4.70925898698372       -0.59312636607230
H            4.31541139112981        2.63787118680838       -0.23473727268428
H            4.79930363278895        1.17103330498656       -2.18344209326882
H            7.24391593161789        1.24219582796113       -2.38457594320601
H            9.47658570577607        0.73399881489332       -1.45910977722256
H           10.86512641300794       -0.24560478278405        0.32596305727716
H            9.80586364728437       -1.29420217562671        2.28766022047887
H            7.35179171856309       -1.37463997232820        2.48061878175081
H            5.13719714694132       -0.83166093678925        1.57773283664936
H            4.40405391651562       -2.35041228807436       -0.18120289199323
H            3.24306233661249       -4.45611769781413        0.28006685131694
H            0.80714479146612       -4.44538538571515        0.74505204473851
H           -0.45068244734967       -2.35100305005813        0.61487137929240
H           -1.14918569543568        1.60161308665788        1.41676215202875
H           -3.59389880180868        1.55138138440502        1.48673003657667
H           -4.42816578106119       -2.37915794717584        1.04916073513127
H           -5.63450370641358       -4.50722398521493        0.79998360459584
