72
 energy: -107.696448248276 gnorm: 0.000057478882 xtb: 6.7.1 (edcfbbe)
C           -7.30692314706712       -3.47902122484354       -0.90061175047221
C           -7.81869732320372       -2.23143686679293       -1.21961302871281
C           -7.11461561423672       -1.08447876899920       -0.90745333547025
C           -5.88307676236729       -1.16928907275428       -0.25714725434229
N           -5.17015830664076       -0.00958904141560        0.06798448445864
C           -5.85170032282904        1.14296591462151        0.47870758154019
C           -6.98181137750976        1.04790669539692        1.29094345949011
C           -7.65102755663933        2.18904978380674        1.68964503863704
C           -7.20298237454278        3.43999986925464        1.29649725671638
C           -6.07850362027500        3.54055314271643        0.49307641857135
C           -5.40780881607942        2.40471766017189        0.08216435039843
C           -3.77238408834844       -0.00149706951784       -0.00423624667868
C           -3.10866836101040       -0.67682723911140       -1.02892589382590
C           -1.72980249019869       -0.67560495884262       -1.08865731957175
C           -0.97364502887156        0.00946898483609       -0.14096267676806
C            0.50320410900514        0.01029147551154       -0.20247265071331
C            1.18886828607244        1.19269625715692       -0.51821859447733
C            0.50177521854781        2.39588280524765       -0.82981366152247
C            1.17698401618223        3.54257702939089       -1.11551327115489
C            2.58645079653648        3.55934217472982       -1.10463299465507
C            3.28347823112584        2.42263868822236       -0.83224680967120
C            2.61843884070354        1.19998301499507       -0.54905074782104
C            3.32831361609649        0.01973225809816       -0.28774847716486
C            4.80770730181983        0.02820161409230       -0.32845210996712
C            5.47309791084843        0.11625218820827       -1.57034950523830
C            6.83703830748445        0.12040507964464       -1.63208283805427
C            7.61634285322835        0.04230589765139       -0.45786285586622
C            9.02653681693534        0.04607578653175       -0.48724574194649
C            9.74938087641543       -0.02958536820823        0.67070755208990
C            9.09511208161837       -0.11310224973691        1.91061782594428
C            7.72972878613910       -0.12007924163113        1.97242814341070
C            6.95459212678553       -0.04267811772192        0.79558447520775
C            5.54544499184951       -0.05002889816031        0.82650576972807
C            2.64368606757464       -1.16694773203362        0.00999690977872
C            3.33186612786027       -2.38581969544633        0.25120956958356
C            2.65967673662997       -3.52770890467997        0.56153127411390
C            1.25330725719838       -3.52036063024921        0.65647400898400
C            0.55528373410919       -2.37734078697201        0.41469670132450
C            1.21455243291363       -1.16876874802729        0.06570670102389
C           -1.63958767027496        0.69225085652836        0.87393980969870
C           -3.01735529294842        0.68303573343187        0.94875780296696
C           -5.37472434141988       -2.42812999081433        0.06494684727912
C           -6.08146699844696       -3.56981159966037       -0.26034518087570
H           -7.85866274483489       -4.37320144220291       -1.14925734044163
H           -8.77078449221182       -2.14986301259567       -1.72383841185557
H           -7.51292743504965       -0.11425088062916       -1.16674068782692
H           -7.32815872736430        0.07466831616751        1.60748608441994
H           -8.52410730539860        2.10051649179314        2.31993584760164
H           -7.72676945439618        4.32954396677754        1.61290002590622
H           -5.72479930286927        4.51105359780422        0.17615217943637
H           -4.53700015951014        2.48588991912986       -0.55223384496545
H           -3.68277109273297       -1.20203014544785       -1.77843949363588
H           -1.22814132742978       -1.19944368434299       -1.88982650484826
H           -0.57807694561337        2.38399640562802       -0.83850333920738
H            0.63857187341598        4.44943001992712       -1.35063462044024
H            3.10718640083128        4.48162733004733       -1.31850869322324
H            4.36361275288110        2.43448204183608       -0.82650594626461
H            4.88118725558875        0.17451283676015       -2.47289807989398
H            7.34090697860962        0.18406938522941       -2.58654087700560
H            9.52540734276380        0.11034014884274       -1.44432917006461
H           10.82958608835385       -0.02580581546912        0.64139636286383
H            9.68228916723803       -0.17186844787475        2.81593828493759
H            7.22136998763953       -0.18504922862675        2.92436479853810
H            5.04380274700853       -0.11452359982865        1.78253054401161
H            4.40972973211958       -2.39097149403284        0.18159200187344
H            3.19846961655060       -4.44684212861141        0.74150563333777
H            0.73559347633989       -4.43137461719901        0.92027373190684
H           -0.52215935481991       -2.37244533599159        0.48730027420793
H           -1.06535407970829        1.22037665853495        1.62185075310135
H           -3.51980026983018        1.20464152447224        1.75042552264557
H           -4.42536028848382       -2.50338919545422        0.57505734602720
H           -5.67609251495677       -4.53762407954755       -0.00250862148886
