  45
        -63.69085055
 C          2.8804793821       -1.5590653536       -2.8039525665
 C          2.6171572391       -2.2206745849       -1.6160407636
 C          1.6749058972       -1.7214149092       -0.7370042736
 C          0.9638772612       -0.5625993653       -1.0354202166
 C         -0.0002835454       -0.0015717575        0.0003088129
 C         -0.9640883722       -1.0386090964        0.5595116131
 C         -1.2516980980       -2.2196552139       -0.1111762314
 C         -2.1987938636       -3.0996465980        0.3851099826
 C         -2.8831149247       -2.8073290378        1.5509236525
 C         -2.6240059406       -1.6178671771        2.2115219023
 C         -1.6801710904       -0.7390225617        1.7150197863
 C          0.9600920427        0.5593694434        1.0395229427
 C          1.6715914523        1.7184133512        0.7431358996
 C          2.6101414609        2.2187337230        1.6254208224
 C          2.8696047077        1.5575268682        2.8144272217
 C          2.1908923960        0.3874709290        3.1029391076
 C          1.2480813905       -0.1118873693        2.2200751944
 C         -0.9603240680        1.0372187058       -0.5621787005
 C         -1.2510315805        2.2164663215        0.1103331233
 C         -2.1919030216        3.1003851816       -0.3905974077
 C         -2.8664402045        2.8141299525       -1.5635688499
 C         -2.6052256676        1.6259839221       -2.2255531427
 C         -1.6684043221        0.7426387873       -1.7236870011
 C          1.2563854538        0.1094493905       -2.2145023671
 C          2.2022933308       -0.3892129366       -3.0943686251
 H          3.6165425158       -1.9474370158       -3.4920043554
 H          3.1530026774       -3.1259988161       -1.3703293080
 H          1.4889046161       -2.2342389929        0.1948326922
 H         -0.7364860047       -2.4619992598       -1.0282396126
 H         -2.4043277374       -4.0170157448       -0.1472116573
 H         -3.6202830930       -3.4953808940        1.9372270609
 H         -3.1646754825       -1.3706873247        3.1135861604
 H         -1.4974183006        0.1941118459        2.2267523639
 H          1.4888506065        2.2303495238       -0.1897987119
 H          3.1462324763        3.1242386298        1.3812474758
 H          3.6030639762        1.9465828665        3.5048670842
 H          2.3972992114       -0.1454302559        4.0198967762
 H          0.7359970580       -1.0314141187        2.4597714578
 H         -0.7427491541        2.4542929335        1.0324123787
 H         -2.3998146433        4.0163235640        0.1433619848
 H         -3.5978583849        3.5058129680       -1.9542437095
 H         -3.1389800695        1.3831900054       -3.1328351264
 H         -1.4848145852       -0.1899031571       -2.2360765431
 H          0.7454480671        1.0292641036       -2.4555396455
 H          2.4118599186        0.1445072201       -4.0100589807
