  45
  -63.4018582234000       0.361257543437564      !
 C          2.8804793821       -1.5590653414       -2.8039525733
 C          2.6171572391       -2.2206745779       -1.6160407733
 C          1.6749058972       -1.7214149060       -0.7370042811
 C          0.9638772612       -0.5625993608       -1.0354202191
 C         -0.0002835454       -0.0015717575        0.0003088129
 C         -0.9640883722       -1.0386090988        0.5595116086
 C         -1.2516980980       -2.2196552134       -0.1111762411
 C         -2.1987938636       -3.0996465997        0.3851099691
 C         -2.8831149247       -2.8073290445        1.5509236403
 C         -2.6240059406       -1.6178671867        2.2115218953
 C         -1.6801710904       -0.7390225692        1.7150197831
 C          0.9600920427        0.5593694389        1.0395229451
 C          1.6715914523        1.7184133480        0.7431359071
 C          2.6101414609        2.2187337159        1.6254208320
 C          2.8696047077        1.5575268560        2.8144272285
 C          2.1908923960        0.3874709155        3.1029391093
 C          1.2480813905       -0.1118873790        2.2200751939
 C         -0.9603240680        1.0372187082       -0.5621786960
 C         -1.2510315805        2.2164663210        0.1103331329
 C         -2.1919030216        3.1003851833       -0.3905973942
 C         -2.8664402045        2.8141299593       -1.5635688377
 C         -2.6052256676        1.6259839318       -2.2255531356
 C         -1.6684043221        0.7426387948       -1.7236869979
 C          1.2563854538        0.1094494001       -2.2145023666
 C          2.2022933308       -0.3892129231       -3.0943686268
 H          3.6165425158       -1.9474370006       -3.4920043639
 H          3.1530026774       -3.1259988101       -1.3703293216
 H          1.4889046161       -2.2342389937        0.1948326825
 H         -0.7364860047       -2.4619992553       -1.0282396233
 H         -2.4043277374       -4.0170157442       -0.1472116748
 H         -3.6202830930       -3.4953809024        1.9372270457
 H         -3.1646754825       -1.3706873382        3.1135861544
 H         -1.4974183006        0.1941118362        2.2267523647
 H          1.4888506065        2.2303495246       -0.1897987022
 H          3.1462324763        3.1242386238        1.3812474894
 H          3.6030639762        1.9465828513        3.5048670927
 H          2.3972992114       -0.1454302734        4.0198967756
 H          0.7359970580       -1.0314141294        2.4597714533
 H         -0.7427491541        2.4542929290        1.0324123894
 H         -2.3998146433        4.0163235634        0.1433620023
 H         -3.5978583849        3.5058129765       -1.9542436943
 H         -3.1389800695        1.3831900190       -3.1328351204
 H         -1.4848145852       -0.1899031474       -2.2360765439
 H          0.7454480671        1.0292641143       -2.4555396410
 H          2.4118599186        0.1445072375       -4.0100589801
  45
  -63.4016301309000       0.283787243219803      !
 C          2.8487776415       -1.7270061790       -2.7396797980
 C          2.0820117915       -2.5544548535       -1.9402912078
 C          1.1479892805       -2.0193230544       -1.0683282213
 C          0.9576562395       -0.6468181729       -0.9926301249
 C          0.0003772878       -0.0003505170       -0.0000331222
 C         -0.9572827325       -0.9946767837        0.6432556782
 C         -1.7532151861       -1.7809660810       -0.1861464315
 C         -2.6847120137       -2.6528716109        0.3437080593
 C         -2.8509239406       -2.7434884215        1.7160233999
 C         -2.0870362454       -1.9444120919        2.5465584636
 C         -1.1515428031       -1.0716997691        2.0150758647
 C          0.9539846711        0.6450329418        0.9968960320
 C          1.1442418844        2.0173160786        1.0746844067
 C          2.0749296017        2.5514594633        1.9508017064
 C          2.8386632765        1.7231555928        2.7522011600
 C          2.6767248182        0.3504708057        2.6608466184
 C          1.7496483320       -0.1820370685        1.7857871445
 C         -0.9533045389        0.9951328051       -0.6474904089
 C         -1.7516950495        1.7826303228        0.1784180715
 C         -2.6784321350        2.6571006104       -0.3555505774
 C         -2.8374855077        2.7489576674       -1.7286198264
 C         -2.0716821837        1.9482204537       -2.5557584219
 C         -1.1409326858        1.0730011596       -2.0201432511
 C          1.7564990430        0.1795020405       -1.7791227614
 C          2.6865561300       -0.3540723068       -2.6504272886
 H          3.5749499421       -2.1464769832       -3.4199238176
 H          2.2120712503       -3.6259520045       -1.9887720474
 H          0.5693055308       -2.6836935212       -0.4447553590
 H         -1.6407931084       -1.7033976334       -1.2575507671
 H         -3.2873407114       -3.2600775823       -0.3160262281
 H         -3.5780129421       -3.4245111299        2.1326101407
 H         -2.2197351718       -1.9946031463        3.6176957044
 H         -0.5744021493       -0.4491551465        2.6816646668
 H          0.5681939456        2.6824069224        0.4495511522
 H          2.2047251922        3.6229106018        2.0009489804
 H          3.5625070625        2.1418134522        3.4353744523
 H          3.2798109215       -0.3075025259        3.2694662510
 H          1.6412366619       -1.2536853319        1.7071345566
 H         -1.6449503905        1.7039797551        1.2503193927
 H         -3.2830248076        3.2652389268        0.3015447419
 H         -3.5607237930        3.4320685606       -2.1484418514
 H         -2.1990584180        1.9991365037       -3.6274970298
 H         -0.5621783728        0.4492504114       -2.6842214033
 H          1.6475316683        1.2513357888       -1.7022674041
 H          3.2920924605        0.3032611779       -3.2572731468
  45
  -63.4016207646000       0.280988415771282      !
 C          2.8654248642       -1.5685460401       -2.8139035132
 C          2.1555943759       -2.4368975092       -2.0048776894
 C          1.2153467716       -1.9523334716       -1.1105500228
 C          0.9608938041       -0.5909003843       -1.0219640025
 C         -0.0003819663       -0.0005787988        0.0007874395
 C         -0.9284422269       -1.0344726028        0.6237099203
 C         -1.6888679819       -1.8416642091       -0.2184221364
 C         -2.5984416648       -2.7450654255        0.2968757782
 C         -2.7787164547       -2.8463151630        1.6665467003
 C         -2.0503531592       -2.0272082953        2.5096650741
 C         -1.1367001112       -1.1232815073        1.9929358014
 C          0.9550200295        0.6344155068        1.0020910072
 C          1.7552044834       -0.1977832464        1.7806865053
 C          2.6900473919        0.3292556644        2.6510096663
 C          2.8549987753        1.7012182164        2.7475986302
 C          2.0856007319        2.5349032790        1.9567737565
 C          1.1475408734        2.0063758251        1.0853228093
 C         -0.9886484550        0.9890376161       -0.6012960744
 C         -1.7668144601        1.7610994065        0.2573888969
 C         -2.7268076576        2.6226746804       -0.2378153293
 C         -2.9401141890        2.7158158571       -1.6033407173
 C         -2.1937985460        1.9300143655       -2.4622740560
 C         -1.2298758458        1.0680817429       -1.9657267384
 C          1.7026971208        0.2775196319       -1.8186304681
 C          2.6394100638       -0.2056578222       -2.7120457089
 H          3.5972383078       -1.9484605276       -3.5111376457
 H          2.3354791538       -3.5006013076       -2.0639135365
 H          0.6808833006       -2.6470382022       -0.4805687668
 H         -1.5671192653       -1.7557924692       -1.2880450814
 H         -3.1741688488       -3.3674856869       -0.3725430395
 H         -3.4899326549       -3.5508130749        2.0713064601
 H         -2.1951673049       -2.0856952402        3.5786913285
 H         -0.5867325331       -0.4858474051        2.6684642371
 H          1.6447267769       -1.2688881639        1.6979849729
 H          3.2974116097       -0.3326091773        3.2511246514
 H          3.5858741005        2.1154314053        3.4259991297
 H          2.2169307078        3.6058929753        2.0116055928
 H          0.5661743394        2.6749663990        0.4686583968
 H         -1.6188690925        1.6804788900        1.3241192077
 H         -3.3157493506        3.2186977395        0.4440434227
 H         -3.6901005831        3.3881265449       -1.9926495777
 H         -2.3632631477        1.9819020523       -3.5280780375
 H         -0.6668119245        0.4552555159       -2.6531929006
 H          1.5447274357        1.3423808008       -1.7322614005
 H          3.2006547793        0.4835865786       -3.3261079965
  45
  -63.4003594684000       7.396679757135109E-002 !
 C          2.4709580260       -1.3452282151       -3.2781829139
 C          1.0886767887       -1.3501552805       -3.3719106981
 C          0.3202761880       -0.9158671191       -2.3092498121
 C          0.9134146763       -0.4758239631       -1.1267609389
 C         -0.0014650790        0.0019677846       -0.0027834921
 C         -0.7763418871       -1.1554515073        0.6207889094
 C         -1.5402765528       -0.8951904033        1.7574876904
 C         -2.2478812544       -1.9022012976        2.3849801073
 C         -2.1978736858       -3.1968972262        1.8946553954
 C         -1.4298743935       -3.4688992202        0.7780199057
 C         -0.7230570530       -2.4576969781        0.1464772302
 C          0.7898564860        0.6144715285        1.1494768772
 C          1.5676198292       -0.2358204612        1.9341512398
 C          2.2944314733        0.2497029455        3.0039331656
 C          2.2500850072        1.5978351770        3.3201728276
 C          1.4675711684        2.4464382180        2.5597340103
 C          0.7415471747        1.9596172500        1.4840811857
 C         -0.9313147775        1.0227154314       -0.6520411731
 C         -0.3544538660        2.0531778796       -1.3930376711
 C         -1.1371925093        3.0033614681       -2.0197795974
 C         -2.5179481806        2.9378441061       -1.9270210358
 C         -3.1004789817        1.9099141863       -1.2095564082
 C         -2.3147463320        0.9580907895       -0.5787528845
 C          2.2980889962       -0.4604949358       -1.0498137130
 C          3.0694153735       -0.8944340320       -2.1165864326
 H          3.0744876749       -1.6831062811       -4.1074066371
 H          0.6080601652       -1.6896411361       -4.2780199523
 H         -0.7568339922       -0.9124504476       -2.3944651482
 H         -1.5735557005        0.1089762381        2.1547768055
 H         -2.8372076506       -1.6773955479        3.2620566667
 H         -2.7478028693       -3.9866944459        2.3843958513
 H         -1.3731055042       -4.4766322227        0.3926872147
 H         -0.1206867355       -2.7004964883       -0.7149991334
 H          1.5979833901       -1.2905914257        1.7021157209
 H          2.8946601700       -0.4263083721        3.5954829278
 H          2.8158502292        1.9801889090        4.1566735072
 H          1.4153886344        3.4979425198        2.8030836197
 H          0.1288125400        2.6418056818        0.9157081353
 H          0.7212877904        2.1048755550       -1.4797956086
 H         -0.6689522413        3.7959241624       -2.5852002077
 H         -3.1326988956        3.6783847534       -2.4166915963
 H         -4.1764278135        1.8409532625       -1.1398844917
 H         -2.7957617459        0.1587515006       -0.0369535762
 H          2.7913784043       -0.1023579756       -0.1597131965
 H          4.1466037185       -0.8737598552       -2.0357595490
