  45
        -63.69085055
 C          2.8804793821       -1.5590653536       -2.8039525665
 C          2.6171572391       -2.2206745849       -1.6160407636
 C          1.6749058972       -1.7214149092       -0.7370042736
 C          0.9638772612       -0.5625993653       -1.0354202166
 C         -0.0002835454       -0.0015717575        0.0003088129
 C         -0.9640883722       -1.0386090964        0.5595116131
 C         -1.2516980980       -2.2196552139       -0.1111762314
 C         -2.1987938636       -3.0996465980        0.3851099826
 C         -2.8831149247       -2.8073290378        1.5509236525
 C         -2.6240059406       -1.6178671771        2.2115219023
 C         -1.6801710904       -0.7390225617        1.7150197863
 C          0.9600920427        0.5593694434        1.0395229427
 C          1.6715914523        1.7184133512        0.7431358996
 C          2.6101414609        2.2187337230        1.6254208224
 C          2.8696047077        1.5575268682        2.8144272217
 C          2.1908923960        0.3874709290        3.1029391076
 C          1.2480813905       -0.1118873693        2.2200751944
 C         -0.9603240680        1.0372187058       -0.5621787005
 C         -1.2510315805        2.2164663215        0.1103331233
 C         -2.1919030216        3.1003851816       -0.3905974077
 C         -2.8664402045        2.8141299525       -1.5635688499
 C         -2.6052256676        1.6259839221       -2.2255531427
 C         -1.6684043221        0.7426387873       -1.7236870011
 C          1.2563854538        0.1094493905       -2.2145023671
 C          2.2022933308       -0.3892129366       -3.0943686251
 H          3.6165425158       -1.9474370158       -3.4920043554
 H          3.1530026774       -3.1259988161       -1.3703293080
 H          1.4889046161       -2.2342389929        0.1948326922
 H         -0.7364860047       -2.4619992598       -1.0282396126
 H         -2.4043277374       -4.0170157448       -0.1472116573
 H         -3.6202830930       -3.4953808940        1.9372270609
 H         -3.1646754825       -1.3706873247        3.1135861604
 H         -1.4974183006        0.1941118459        2.2267523639
 H          1.4888506065        2.2303495238       -0.1897987119
 H          3.1462324763        3.1242386298        1.3812474758
 H          3.6030639762        1.9465828665        3.5048670842
 H          2.3972992114       -0.1454302559        4.0198967762
 H          0.7359970580       -1.0314141187        2.4597714578
 H         -0.7427491541        2.4542929335        1.0324123787
 H         -2.3998146433        4.0163235640        0.1433619848
 H         -3.5978583849        3.5058129680       -1.9542437095
 H         -3.1389800695        1.3831900054       -3.1328351264
 H         -1.4848145852       -0.1899031571       -2.2360765431
 H          0.7454480671        1.0292641036       -2.4555396455
 H          2.4118599186        0.1445072201       -4.0100589807
  45
        -63.69076664
 C          2.8654248642       -1.5685460523       -2.8139035064
 C          2.1555943759       -2.4368975179       -2.0048776788
 C          1.2153467716       -1.9523334764       -1.1105500143
 C          0.9608938041       -0.5909003887       -1.0219639999
 C         -0.0003819663       -0.0005787988        0.0007874395
 C         -0.9284422269       -1.0344726001        0.6237099248
 C         -1.6888679819       -1.8416642100       -0.2184221284
 C         -2.5984416648       -2.7450654242        0.2968757901
 C         -2.7787164547       -2.8463151557        1.6665467127
 C         -2.0503531592       -2.0272082844        2.5096650829
 C         -1.1367001112       -1.1232814986        1.9929358063
 C          0.9550200295        0.6344155112        1.0020910044
 C          1.7552044834       -0.1977832386        1.7806865062
 C          2.6900473919        0.3292556759        2.6510096649
 C          2.8549987753        1.7012182284        2.7475986228
 C          2.0856007319        2.5349032875        1.9567737455
 C          1.1475408734        2.0063758298        1.0853228006
 C         -0.9886484550        0.9890376135       -0.6012960787
 C         -1.7668144601        1.7610994076        0.2573888892
 C         -2.7268076576        2.6226746794       -0.2378153407
 C         -2.9401141890        2.7158158501       -1.6033407291
 C         -2.1937985460        1.9300143548       -2.4622740644
 C         -1.2298758458        1.0680817344       -1.9657267430
 C          1.7026971208        0.2775196240       -1.8186304693
 C          2.6394100638       -0.2056578340       -2.7120457080
 H          3.5972383078       -1.9484605429       -3.5111376372
 H          2.3354791538       -3.5006013166       -2.0639135213
 H          0.6808833006       -2.6470382043       -0.4805687553
 H         -1.5671192653       -1.7557924748       -1.2880450738
 H         -3.1741688488       -3.3674856885       -0.3725430248
 H         -3.4899326549       -3.5508130659        2.0713064756
 H         -2.1951673049       -2.0856952246        3.5786913376
 H         -0.5867325331       -0.4858473935        2.6684642392
 H          1.6447267769       -1.2688881565        1.6979849784
 H          3.2974116097       -0.3326091631        3.2511246529
 H          3.5858741005        2.1154314202        3.4259991205
 H          2.2169307078        3.6058929841        2.0116055771
 H          0.5661743394        2.6749664010        0.4686583852
 H         -1.6188690925        1.6804788958        1.3241192004
 H         -3.3157493506        3.2186977414        0.4440434087
 H         -3.6901005831        3.3881265362       -1.9926495924
 H         -2.3632631477        1.9819020370       -3.5280780461
 H         -0.6668119245        0.4552555044       -2.6531929026
 H          1.5447274357        1.3423807933       -1.7322614063
 H          3.2006547793        0.4835865641       -3.3261079986
  45
        -63.69068662
 C          2.8487776415       -1.7270061909       -2.7396797905
 C          2.0820117915       -2.5544548619       -1.9402911967
 C          1.1479892805       -2.0193230590       -1.0683282125
 C          0.9576562395       -0.6468181772       -0.9926301221
 C          0.0003772878       -0.0003505170       -0.0000331222
 C         -0.9572827325       -0.9946767809        0.6432556825
 C         -1.7532151861       -1.7809660818       -0.1861464238
 C         -2.6847120137       -2.6528716094        0.3437080708
 C         -2.8509239406       -2.7434884140        1.7160234118
 C         -2.0870362454       -1.9444120808        2.5465584721
 C         -1.1515428031       -1.0716997603        2.0150758694
 C          0.9539846711        0.6450329461        0.9968960292
 C          1.1442418844        2.0173160833        1.0746843979
 C          2.0749296017        2.5514594718        1.9508016953
 C          2.8386632765        1.7231556048        2.7522011525
 C          2.6767248182        0.3504708173        2.6608466169
 C          1.7496483320       -0.1820370607        1.7857871453
 C         -0.9533045389        0.9951328023       -0.6474904132
 C         -1.7516950495        1.7826303236        0.1784180638
 C         -2.6784321350        2.6571006089       -0.3555505889
 C         -2.8374855077        2.7489576599       -1.7286198383
 C         -2.0716821837        1.9482204426       -2.5557584304
 C         -1.1409326858        1.0730011508       -2.0201432558
 C          1.7564990430        0.1795020328       -1.7791227622
 C          2.6865561300       -0.3540723183       -2.6504272871
 H          3.5749499421       -2.1464769981       -3.4199238083
 H          2.2120712503       -3.6259520131       -1.9887720316
 H          0.5693055308       -2.6836935231       -0.4447553473
 H         -1.6407931084       -1.7033976389       -1.2575507597
 H         -3.2873407114       -3.2600775837       -0.3160262139
 H         -3.5780129421       -3.4245111206        2.1326101556
 H         -2.2197351718       -1.9946031306        3.6176957131
 H         -0.5744021493       -0.4491551348        2.6816646688
 H          0.5681939456        2.6824069244        0.4495511405
 H          2.2047251922        3.6229106105        2.0009489647
 H          3.5625070625        2.1418134671        3.4353744430
 H          3.2798109215       -0.3075025117        3.2694662523
 H          1.6412366619       -1.2536853245        1.7071345620
 H         -1.6449503905        1.7039797605        1.2503193853
 H         -3.2830248076        3.2652389281        0.3015447277
 H         -3.5607237930        3.4320685513       -2.1484418663
 H         -2.1990584180        1.9991364880       -3.6274970385
 H         -0.5621783728        0.4492503997       -2.6842214052
 H          1.6475316683        1.2513357814       -1.7022674095
 H          3.2920924605        0.3032611637       -3.2572731481
  45
        -63.68986742
 C          2.4709580260       -1.3452282293       -3.2781829081
 C          1.0886767887       -1.3501552951       -3.3719106922
 C          0.3202761880       -0.9158671291       -2.3092498081
 C          0.9134146763       -0.4758239680       -1.1267609368
 C         -0.0014650790        0.0019677846       -0.0027834921
 C         -0.7763418871       -1.1554515046        0.6207889144
 C         -1.5402765528       -0.8951903957        1.7574876943
 C         -2.2478812544       -1.9022012872        2.3849801156
 C         -2.1978736858       -3.1968972180        1.8946554093
 C         -1.4298743935       -3.4688992168        0.7780199208
 C         -0.7230570530       -2.4576969775        0.1464772409
 C          0.7898564860        0.6144715335        1.1494768745
 C          1.5676198292       -0.2358204528        1.9341512408
 C          2.2944314733        0.2497029585        3.0039331645
 C          2.2500850072        1.5978351914        3.3201728207
 C          1.4675711684        2.4464382291        2.5597339997
 C          0.7415471747        1.9596172564        1.4840811772
 C         -0.9313147775        1.0227154286       -0.6520411775
 C         -0.3544538660        2.0531778736       -1.3930376800
 C         -1.1371925093        3.0033614593       -2.0197796104
 C         -2.5179481806        2.9378440977       -1.9270210486
 C         -3.1004789817        1.9099141811       -1.2095564165
 C         -2.3147463320        0.9580907870       -0.5787528887
 C          2.2980889962       -0.4604949404       -1.0498137110
 C          3.0694153735       -0.8944340412       -2.1165864287
 H          3.0744876749       -1.6831062989       -4.1074066298
 H          0.6080601652       -1.6896411547       -4.2780199450
 H         -0.7568339922       -0.9124504580       -2.3944651442
 H         -1.5735557005        0.1089762475        2.1547768050
 H         -2.8372076506       -1.6773955337        3.2620566740
 H         -2.7478028693       -3.9866944355        2.3843958686
 H         -1.3731055042       -4.4766322210        0.3926872341
 H         -0.1206867355       -2.7004964914       -0.7149991217
 H          1.5979833901       -1.2905914183        1.7021157265
 H          2.8946601700       -0.4263083565        3.5954829297
 H          2.8158502292        1.9801889270        4.1566734986
 H          1.4153886344        3.4979425320        2.8030836045
 H          0.1288125400        2.6418056858        0.9157081238
 H          0.7212877904        2.1048755486       -1.4797956177
 H         -0.6689522413        3.7959241512       -2.5852002242
 H         -3.1326988956        3.6783847429       -2.4166916123
 H         -4.1764278135        1.8409532576       -1.1398844997
 H         -2.7957617459        0.1587515005       -0.0369535769
 H          2.7913784043       -0.1023579763       -0.1597131960
 H          4.1466037185       -0.8737598640       -2.0357595452
