  68
       -116.74924094
 C          0.9420044925        4.8873193343        1.3886896255
 C          2.2070708426        5.4501421453        1.2380959455
 C          3.2980994432        4.6815865011        0.8821430411
 C          3.1048717989        3.3227443186        0.6612434403
 C          1.8129452192        2.7727514080        0.7996538849
 C          0.7249799193        3.5361858894        1.1780743665
 O          1.8074495845        1.4371398380        0.5358138562
 C          3.0881787009        1.1084681393        0.2363908993
 C          3.9545852024        2.2195970348        0.3074244844
 C          5.3302493867        2.0774804078        0.1022174841
 C          5.8567694151        0.8263908812       -0.1417119333
 C          5.0105911793       -0.2809413026       -0.2089665059
 C          5.2426084963       -1.6862820301       -0.3949357798
 C          6.3877090387       -2.4491148759       -0.5836789524
 C          6.2559838085       -3.8154524542       -0.7455694675
 C          5.0035351758       -4.4259377445       -0.7364585662
 C          3.8474271886       -3.6892544835       -0.5498262246
 C          3.9757183296       -2.3218192729       -0.3660487807
 N          2.9935859177       -1.3669612355       -0.1776085149
 C          1.6278837397       -1.5487230772       -0.1812466923
 C          0.9983277518       -2.4738656873        0.6365306577
 N         -0.3112633716       -2.5494960334        0.7490209273
 C         -1.0748649776       -1.6893970255       -0.0052784743
 N         -2.4390444205       -1.8190591317        0.0748802382
 C         -3.0904792493       -3.0167310462        0.3405842826
 C         -2.5610316966       -4.2823616061        0.5372556784
 C         -3.4400138823       -5.3206311858        0.7876296282
 C         -4.8170018106       -5.1100336422        0.8296897760
 C         -5.3513667084       -3.8525449446        0.6261298079
 C         -4.4870715506       -2.7946830055        0.3735485421
 C         -4.6930343824       -1.4008359738        0.1192609907
 C         -5.8595318105       -0.6396559316        0.0607981507
 C         -5.7807981487        0.7145456203       -0.1679834383
 C         -4.5234117088        1.2998312256       -0.3393311662
 C         -4.1011714121        2.6471958560       -0.5929911525
 C         -4.7538057272        3.8640579957       -0.7577102149
 C         -3.9912411055        4.9857849534       -1.0157391442
 C         -2.6046599605        4.9099334248       -1.1210764839
 C         -1.9325596291        3.7094966082       -0.9620442322
 C         -2.6968266566        2.5921305398       -0.6851968462
 O         -2.2377667669        1.3224858220       -0.4909732998
 C         -3.3344020498        0.5392471477       -0.2893874618
 C         -3.4026787346       -0.8293160215       -0.0630368624
 C         -0.4362056013       -0.8182879704       -0.8786189919
 N          0.8713586692       -0.7283640323       -0.9713676005
 C          3.6093249790       -0.1385489851       -0.0612673865
 H          0.1120260687        5.5147689835        1.6766204502
 H          2.3351497483        6.5084648452        1.4104200223
 H          4.2786919261        5.1197155708        0.7768795119
 H         -0.2474700455        3.0884351961        1.3037051908
 H          5.9709488483        2.9434753535        0.1602707622
 H          6.9198086131        0.6963210932       -0.2733685879
 H          7.3594696632       -1.9800493870       -0.6055038566
 H          7.1364090185       -4.4235089344       -0.8903506773
 H          4.9336506661       -5.4935825857       -0.8801124213
 H          2.8777926018       -4.1634765762       -0.5571946750
 H          1.5779070330       -3.0998560665        1.3002049757
 H         -1.4965868436       -4.4470555371        0.5021207756
 H         -3.0516802181       -6.3150601975        0.9475431939
 H         -5.4733044171       -5.9456015199        1.0232597004
 H         -6.4176966246       -3.6901499521        0.6624441523
 H         -6.8147502927       -1.1204866834        0.2042215350
 H         -6.6672841493        1.3272009383       -0.2124123534
 H         -5.8289032264        3.9233713373       -0.6859176758
 H         -4.4769050008        5.9415461957       -1.1451733071
 H         -2.0388159644        5.8041539012       -1.3348533329
 H         -0.8600892464        3.6438630043       -1.0527567121
 H         -1.0024690470       -0.2396115141       -1.5899504663
