51
 energy: -86.621583355199 gnorm: 0.000125476038 xtb: 6.7.1 (edcfbbe)
O            3.52149072768911       -3.26739876806790        1.13642949511497
C            3.20971281665346       -2.39610630544259        0.29871762359414
C            4.33710063035466       -1.76022673152336       -0.52318036031238
C            4.19083550753251       -0.27351092455531       -0.78799380735405
O            4.51143378037209        0.16315068690066       -1.89879027706323
C            3.66169088224395        0.57340958035763        0.26470434794433
C            3.51700064588328        0.12755086794873        1.58774975117142
C            2.85633107170249        0.89486185054316        2.52303134555605
C            2.33918162340131        2.13312466860525        2.16730778232201
C            2.51060373320504        2.61737017579603        0.88495088391912
C            3.17912338777194        1.86183980092181       -0.07527522107936
O            3.31671248335017        2.37245948160132       -1.30433188641493
C            1.87594387365238       -1.96186094783003        0.06252986218446
C            0.87057625480835       -2.29691163464584        1.01021456535902
C           -0.37434928491471       -1.74830965938262        0.93780492277329
C           -0.69344098929658       -0.85550113592579       -0.10556412916847
N           -1.97058224083055       -0.25586274638280       -0.16663796965105
C           -3.10612026254377       -1.03241810935019       -0.31346098773894
C           -3.04300718714061       -2.42031592505110       -0.46001232686732
C           -4.19870061796957       -3.16503793064338       -0.58575980922059
C           -5.44096341173034       -2.54732348850375       -0.58114909516230
C           -5.52455792243659       -1.17025319268046       -0.47317189103228
C           -4.37034654488714       -0.41291187290614       -0.34780151559678
O           -4.51327007542922        0.93999242447853       -0.27806664848929
C           -3.38539639652765        1.69677419167564       -0.16027734764256
C           -3.54697149461343        3.07205981571481       -0.09732039145735
C           -2.44301684870985        3.89142249853546        0.05731443194308
C           -1.17883963814194        3.33109918968159        0.17090015469699
C           -1.00554446901609        1.96312873437012        0.10762164902490
C           -2.10274692954693        1.12022344989120       -0.08321109112294
C            0.25589395957555       -0.58378044824279       -1.09814328739388
C            1.50524508658959       -1.14011745093056       -1.03580188570998
H            4.42398792308893       -2.26443614924067       -1.49192961866045
H            5.26994945175463       -1.93569181239005        0.02269344151932
H            3.95439698583400       -0.80824273660586        1.89059734831691
H            2.74853116275369        0.53417770827075        3.53431734824919
H            1.81805644472051        2.73273578024140        2.89902979935332
H            2.15064092480959        3.59325018052278        0.59883011375136
H            3.82822368855230        1.71915640699875       -1.84412846151940
H            1.14572057488731       -2.95955573085731        1.81593520912730
H           -1.11811123385304       -1.96027924244753        1.69237290699083
H           -2.07976003606524       -2.90328501685147       -0.48223685994258
H           -4.12796963334739       -4.23588880345937       -0.69326017510705
H           -6.34151180593223       -3.13254573169882       -0.67563431383333
H           -6.47309761666957       -0.65840668175309       -0.49041542454932
H           -4.54499402556178        3.47371113248462       -0.16625240609186
H           -2.57214082665829        4.96097166983713        0.10117545577643
H           -0.31768143187761        3.96369398482823        0.31219349634971
H           -0.01998687964179        1.53873338304170        0.21349922752413
H           -0.02175917269533        0.04550795389102       -1.93209073733158
H            2.18663400210412       -0.98132039420363       -1.85417907213061
