51
 energy: -86.702449157984 gnorm: 0.000028317503 xtb: 6.7.1 (edcfbbe)
O            3.66736416241460       -3.33216246510595        0.25165265976461
C            3.32811077480898       -2.33660960360548       -0.34408635721554
C            4.34267274401876       -1.44376281884136       -1.05084831807152
C            3.99548159532229        0.02882967378779       -1.01579825203896
O            4.04087774184009        0.69536914257104       -2.04377336715330
C            3.54389184828028        0.59062853194236        0.25756292573681
C            3.73439669502546       -0.06845394225638        1.47880016198143
C            3.19858630276634        0.42742357482234        2.64409270951565
C            2.43980339595436        1.59383253976805        2.61616496988438
C            2.25437962724740        2.27527498687452        1.43590855997357
C            2.82057609808844        1.80539485386197        0.24712900326212
O            2.62150903970984        2.51636054284369       -0.86556488223838
C            1.92751288825068       -1.86731712797516       -0.39312591840355
C            1.11526740137394       -2.11809991549079        0.71368682040882
C           -0.15593412280822       -1.59299578572520        0.78823521291373
C           -0.65361183416166       -0.82055171263819       -0.26085701203911
N           -1.92917699943350       -0.24122859970489       -0.17666807359017
C           -3.06919205124704       -1.03331228110343       -0.00034723729473
C           -3.01502877069109       -2.42160165850682        0.00813316733895
C           -4.16516911809306       -3.17692605170237        0.17779404817575
C           -5.39024752962769       -2.55913235604114        0.32798342767631
C           -5.46679938857107       -1.17551801158842        0.28275005851048
C           -4.32285017016294       -0.41746660976426        0.11110910367428
O           -4.48629392625696        0.94213113685475        0.03726295862084
C           -3.36228414360209        1.70619652828433       -0.15204295083217
C           -3.54280682403989        3.07575642410398       -0.22168197840232
C           -2.45316707470491        3.91955771401954       -0.37413683422944
C           -1.18258893312520        3.38357042702756       -0.43273652608545
C           -0.99723906946054        2.01169525489861       -0.36380669340715
C           -2.08060012894810        1.14977001864701       -0.25107555665049
C            0.13205913608237       -0.62151199505897       -1.39675717548573
C            1.40984762464917       -1.13388098404376       -1.46144595279103
H            4.41534725586443       -1.75017308190558       -2.09869337091079
H            5.32208044910403       -1.61040184429670       -0.59521450950052
H            4.32493237089404       -0.97003643312246        1.51279156465724
H            3.36236253716402       -0.08953351967476        3.57656594836556
H            2.00261110172754        1.97394140590733        3.52700212491791
H            1.68148294062707        3.18812785069838        1.39692622749737
H            3.11286032292459        2.08449877142982       -1.60413653168219
H            1.51893951428983       -2.69990083195566        1.52834136478382
H           -0.76487000115176       -1.75627935628159        1.66465304663435
H           -2.06830076112835       -2.91977610766999       -0.12958088027899
H           -4.09124488288721       -4.25336112607005        0.18603368387771
H           -6.28721264161337       -3.14179545609989        0.46566565643897
H           -6.41009572801176       -0.66101614578687        0.37235338563928
H           -4.54729373003699        3.46102053226727       -0.14914482082021
H           -2.60492056208697        4.98568084172631       -0.43331221341228
H           -0.31916715700012        4.02223675528419       -0.53432343765815
H            0.00417768448558        1.61461347553002       -0.39029829646486
H           -0.27107398947018       -0.06043291999453       -2.22648836593965
H            1.99017296917982       -0.98578063537766       -2.35881341805775
