  51
        -86.62157542
 O          3.1268301658        2.6779028285       -0.5968929922
 C          2.6302608387        2.0740018073        0.3672405842
 C          3.5186160567        1.7396937375        1.5615537320
 C          3.7507779914        0.2841872979        1.2333840998
 O          3.0594463527       -0.5769409591        1.8282132172
 C          4.7042707707       -0.0742998028        0.2025556670
 C          5.4887689314        0.8587602462       -0.4896245571
 C          6.3779663003        0.4572464243       -1.4660835636
 C          6.5291838032       -0.8906901853       -1.7727128184
 C          5.7741204873       -1.8355120704       -1.1091636093
 C          4.8623917911       -1.4534928788       -0.1236832646
 O          4.1576488678       -2.4065983503        0.4886542176
 C          1.2767148880        1.5760969491        0.3601934190
 C          0.5252292265        1.7627761921       -0.8235267051
 C         -0.7509312638        1.2831550078       -0.9411648452
 C         -1.3363701218        0.5975027470        0.1301940806
 N         -2.6379357523        0.0507353076        0.0032104527
 C         -3.7385420145        0.8768805154       -0.1250216942
 C         -3.6298301143        2.2676883988       -0.0819369745
 C         -4.7509588043        3.0620794214       -0.2197621071
 C         -6.0027436379        2.4910354269       -0.3960639973
 C         -6.1352097502        1.1136185408       -0.4183863815
 C         -5.0170340184        0.3070632064       -0.2788430385
 O         -5.2102247694       -1.0424462939       -0.2864031686
 C         -4.1167175478       -1.8460417798       -0.1454354390
 C         -4.3261810430       -3.2161079481       -0.1567251802
 C         -3.2523663514       -4.0815481914       -0.0423509541
 C         -1.9657113863       -3.5751627326        0.0697431764
 C         -1.7459094502       -2.2117139746        0.0828329901
 C         -2.8172181504       -1.3217579146       -0.0086226645
 C         -0.6266780280        0.4386950809        1.3224653003
 C          0.6503308305        0.9289103168        1.4453037683
 H          3.0068825819        1.8430011864        2.5159846994
 H          4.4219276987        2.3439018424        1.5454728176
 H          5.3806064555        1.9107262333       -0.2898580497
 H          6.9554559845        1.1984322759       -1.9975943823
 H          7.2324280804       -1.2003062108       -2.5310932291
 H          5.8722161969       -2.8885234911       -1.3233338054
 H          3.5719782287       -1.9416063936        1.1576688744
 H          1.0062283928        2.2733907143       -1.6437917247
 H         -1.3058111949        1.4028341627       -1.8606274033
 H         -2.6597460057        2.7139442428        0.0663163261
 H         -4.6460209934        4.1350413557       -0.1863810780
 H         -6.8754449279        3.1143631056       -0.5077559397
 H         -7.0960615568        0.6400365671       -0.5393901238
 H         -5.3360721644       -3.5786408930       -0.2611181859
 H         -3.4203927991       -5.1465754222       -0.0503329450
 H         -1.1240836440       -4.2452735975        0.1442215813
 H         -0.7426979655       -1.8249889895        0.1597470605
 H         -1.0983995106       -0.0683040851        2.1522538931
 H          1.1649367868        0.7906617403        2.3801191776
