  52
        -81.68167175
 C         -5.5999216324        0.0657795381       -0.6606107139
 C         -4.4653751196        0.1254568880        0.3802690182
 C         -5.0508534517        0.2892932906        1.7962871195
 C         -3.5919969395        1.3224809402        0.0734279091
 C         -4.1434750057        2.5961064972        0.0722742541
 C         -3.3900581616        3.7187459003       -0.2182296783
 C         -2.0450658647        3.5795073484       -0.5279981848
 C         -1.4696738061        2.3301719032       -0.5336263081
 C         -2.2261576267        1.1891053438       -0.2252161354
 N         -1.6179454595       -0.0457765284       -0.2319378975
 C         -0.2251494562       -0.1289099016       -0.5189112900
 C          0.2208020106       -0.4797672616       -1.7920381842
 C          1.5652186185       -0.5612095039       -2.0528011411
 C          2.5188887942       -0.2902195669       -1.0405515636
 C          3.9192839149       -0.3791927303       -1.3213923711
 O          4.3731109269       -0.6919146116       -2.4529541839
 C          4.7841663781       -0.0868470507       -0.1911321659
 C          6.1797526037       -0.1404097828       -0.3251747155
 C          6.9958410635        0.1415996412        0.7500969777
 C          6.4477557644        0.4816514660        1.9767936587
 C          5.0681384921        0.5393623351        2.1286752832
 C          4.2391828750        0.2574177835        1.0561687937
 O          2.8924884299        0.3333215748        1.2791026242
 C          2.0497024494        0.0610115288        0.2442525861
 C          0.6979658512        0.1435279228        0.5023260712
 C         -2.3129090212       -1.2025569449        0.0395711823
 C         -1.6339502290       -2.4307581979        0.0351050982
 C         -2.3013608160       -3.6058487010        0.2913640376
 C         -3.6615397612       -3.5822322448        0.5624871842
 C         -4.3327707850       -2.3732983906        0.5819922141
 C         -3.6871610351       -1.1713199214        0.3282377534
 H         -6.2571440787       -0.7771424384       -0.4682220014
 H         -5.1821899143       -0.0447734648       -1.6594118574
 H         -6.1951007191        0.9737355869       -0.6359591477
 H         -4.2468250995        0.3226263689        2.5288696822
 H         -5.6245362008        1.2084029834        1.8733246686
 H         -5.7048981884       -0.5423717468        2.0420005510
 H         -5.1901596907        2.7228140819        0.3026286993
 H         -3.8502052462        4.6946561825       -0.2085068828
 H         -1.4475321996        4.4458214759       -0.7659918274
 H         -0.4261658494        2.2173134721       -0.7798595062
 H         -0.5022556004       -0.6833746140       -2.5680315058
 H          1.9380453351       -0.8285770753       -3.0280691775
 H          6.5860538635       -0.4064729084       -1.2880488606
 H          8.0681656532        0.0958850233        0.6305562717
 H          7.0852082903        0.7025430401        2.8189127127
 H          4.6175982161        0.8019195546        3.0730654444
 H          0.3594623104        0.4135585860        1.4902098814
 H         -0.5756396102       -2.4448532760       -0.1699939180
 H         -1.7629113497       -4.5409084958        0.2813158029
 H         -4.1946274041       -4.4986809569        0.7624006470
 H         -5.3888661742       -2.3734158996        0.8035270398
  52
        -81.68157396
 C         -4.8833181986        0.2716665551       -1.9399229720
 C         -4.4318811846        0.1380140818       -0.4721744756
 C         -5.6567522130        0.1351526249        0.4620788843
 C         -3.5586169378        1.3244643080       -0.1266854862
 C         -4.0863129497        2.6071996041       -0.1741266535
 C         -3.3302282946        3.7209241251        0.1429461125
 C         -2.0072452214        3.5633333526        0.5290259462
 C         -1.4539365561        2.3051206982        0.5779791014
 C         -2.2118751877        1.1729067259        0.2412217476
 N         -1.6235043180       -0.0710829677        0.2890177619
 C         -0.2296262129       -0.1598941989        0.5668210407
 C          0.2348446679       -0.5069114013        1.8343636993
 C          1.5832221039       -0.5788874670        2.0777392693
 C          2.5225751249       -0.2992099176        1.0542254219
 C          3.9271818958       -0.3698169602        1.3189005769
 O          4.3982854777       -0.6750270518        2.4453213961
 C          4.7750487865       -0.0660969257        0.1784090315
 C          6.1726543850       -0.0955678101        0.2973885940
 C          6.9722648037        0.1977306223       -0.7873363454
 C          6.4054866750        0.5248701782       -2.0090761602
 C          5.0235783866        0.5591269531       -2.1460203324
 C          4.2112411036        0.2665785793       -1.0636200887
 O          2.8612874007        0.3217904840       -1.2716911840
 C          2.0345326720        0.0445256615       -0.2254515075
 C          0.6793459680        0.1168596961       -0.4660832272
 C         -2.3332727079       -1.2230816436        0.0355121164
 C         -1.6854929334       -2.4648774749        0.1223274686
 C         -2.3695440050       -3.6345972525       -0.1142542940
 C         -3.7140092309       -3.5917120054       -0.4528721944
 C         -4.3531598964       -2.3696649283       -0.5561742044
 C         -3.6918472240       -1.1730423876       -0.3178883764
 H         -5.5267330218       -0.5566723730       -2.2222492239
 H         -4.0154718640        0.2721604038       -2.5965747748
 H         -5.4296352847        1.1981004896       -2.0920376568
 H         -6.3187445216       -0.6939023622        0.2309120592
 H         -5.3334940118        0.0397258437        1.4967467844
 H         -6.2226266344        1.0565834370        0.3622391250
 H         -5.1153046086        2.7488104545       -0.4669030481
 H         -3.7715332556        4.7042810723        0.0943496756
 H         -1.4092289494        4.4222492945        0.7913637162
 H         -0.4271897642        2.1783848792        0.8814289805
 H         -0.4765343986       -0.7132569241        2.6203879606
 H          1.9703144331       -0.8422148812        3.0486233381
 H          6.5939745058       -0.3525229468        1.2562479499
 H          8.0464235881        0.1704946314       -0.6793126943
 H          7.0299973390        0.7537440726       -2.8588842297
 H          4.5582963390        0.8117377102       -3.0860073407
 H          0.3265202536        0.3836828174       -1.4497956717
 H         -0.6378920605       -2.4942580040        0.3752828764
 H         -1.8555703058       -4.5803009014       -0.0393176074
 H         -4.2591723584       -4.5034605334       -0.6420619009
 H         -5.3953119182       -2.3550593933       -0.8357285141
  52
        -81.68154142
 C         -5.6648198168        0.1155154232       -0.4283426895
 C         -4.4236719416        0.1435531201        0.4836523031
 C         -4.8495948272        0.3083705125        1.9558161040
 C         -3.5613471839        1.3254624652        0.0973316892
 C         -4.0939883786        2.6068433620        0.1215998916
 C         -3.3467161783        3.7157860378       -0.2310236540
 C         -2.0274598539        3.5547584598       -0.6287327214
 C         -1.4690964828        2.2980365015       -0.6544491558
 C         -2.2184321933        1.1710675763       -0.2831215827
 N         -1.6249615919       -0.0708987148       -0.3087075828
 C         -0.2300557810       -0.1584490417       -0.5827489546
 C          0.2409213772       -0.5137062788       -1.8454515024
 C          1.5907532946       -0.5884234076       -2.0806692357
 C          2.5245987907       -0.3040709637       -1.0534006298
 C          3.9307122489       -0.3814648223       -1.3081747401
 O          4.4081859344       -0.6975507728       -2.4289828333
 C          4.7720909155       -0.0728001238       -0.1642504084
 C          6.1703806641       -0.1112036786       -0.2726264250
 C          6.9636876187        0.1875285949        0.8152064078
 C          6.3899402966        0.5291215408        2.0297233396
 C          5.0073176785        0.5718989461        2.1563355890
 C          4.2012940076        0.2733622467        1.0708934618
 O          2.8502952375        0.3356401501        1.2693913527
 C          2.0296191643        0.0506585045        0.2205082530
 C          0.6731909535        0.1257440175        0.4529078244
 C         -2.3273674079       -1.2203435642       -0.0250580551
 C         -1.6767138514       -2.4614600166       -0.0988795235
 C         -2.3531825313       -3.6287276746        0.1695890093
 C         -3.6925160345       -3.5836242392        0.5278807270
 C         -4.3345327852       -2.3620139428        0.6171670196
 C         -3.6813153688       -1.1680344573        0.3454563146
 H         -6.3184814292       -0.7116097704       -0.1682372032
 H         -5.3595353476        0.0002732415       -1.4663657965
 H         -6.2333634964        1.0361950543       -0.3375067132
 H         -5.4812534320       -0.5179905026        2.2689218059
 H         -3.9699222914        0.3305253996        2.5961174128
 H         -5.4001315011        1.2342416355        2.0961138973
 H         -5.1193806521        2.7513104948        0.4252640158
 H         -3.7918267954        4.6982245188       -0.2003111226
 H         -1.4365198089        4.4098602793       -0.9182403985
 H         -0.4452829516        2.1678713572       -0.9662738022
 H         -0.4661760216       -0.7245979654       -2.6342079784
 H          1.9831072350       -0.8581332152       -3.0476986790
 H          6.5972669740       -0.3790127522       -1.2260254509
 H          8.0384584655        0.1538191617        0.7151618426
 H          7.0094988214        0.7634724983        2.8815505499
 H          4.5365191556        0.8355372219        3.0905343060
 H          0.3150545198        0.4003116280        1.4325371800
 H         -0.6334096676       -2.4922209662       -0.3686399158
 H         -1.8377962998       -4.5742773548        0.1025048789
 H         -4.2316298498       -4.4933065080        0.7423316739
 H         -5.3726949905       -2.3456272992        0.9113679546
  52
        -81.68154069
 C         -5.2373361926        0.0402308211       -1.6584324730
 C         -4.4953581984        0.0461157611       -0.3084339561
 C         -5.5075866520        0.0698269934        0.8537297296
 C         -3.6402068137        1.2919108497       -0.2240828437
 C         -4.2284087181        2.5431559629       -0.3444920394
 C         -3.4895994109        3.7092248842       -0.2610496753
 C         -2.1209912959        3.6396291900       -0.0456640779
 C         -1.5103985236        2.4141036778        0.0855455965
 C         -2.2547810008        1.2279262798       -0.0021687784
 N         -1.6135482515        0.0183479546        0.1360786069
 C         -0.2244843233        0.0032789993        0.4562411002
 C          0.1852756071       -0.0301292392        1.7875476965
 C          1.5216083707       -0.0512115907        2.0968410594
 C          2.5024550271       -0.0404741015        1.0750659858
 C          3.8939544615       -0.0670031016        1.4079829180
 O          4.3146795149       -0.0993013301        2.5939343448
 C          4.7909882172       -0.0561078673        0.2655797447
 C          6.1818354135       -0.0821006491        0.4481350774
 C          7.0289677489       -0.0707776642       -0.6398593360
 C          6.5170191820       -0.0332903458       -1.9272198819
 C          5.1425605322       -0.0073938032       -2.1274861842
 C          4.2823495426       -0.0190554561       -1.0426453030
 O          2.9426665599        0.0069925541       -1.3147166353
 C          2.0698832718       -0.0056751145       -0.2687206648
 C          0.7255868024        0.0165148784       -0.5759633224
 C         -2.2811740700       -1.1790523243        0.0170118520
 C         -1.5613448994       -2.3795355774        0.1154469125
 C         -2.1990345890       -3.5935336994        0.0080405307
 C         -3.5707338312       -3.6369469505       -0.1948879551
 C         -4.2844857130       -2.4565811009       -0.2944127426
 C         -3.6684354644       -1.2166141869       -0.1991563551
 H         -5.8770349302       -0.8329190970       -1.7450496635
 H         -4.5195905030        0.0237109629       -2.4760350354
 H         -5.8579559556        0.9250769404       -1.7635130663
 H         -4.9798425265        0.0734905377        1.8055707369
 H         -6.1313867059        0.9577574814        0.8034478294
 H         -6.1514781373       -0.8044473913        0.8214216772
 H         -5.2928397115        2.6176183649       -0.5057061526
 H         -3.9785767863        4.6657959311       -0.3614797729
 H         -1.5328378041        4.5417119284        0.0217044618
 H         -0.4477211104        2.3544277431        0.2574107067
 H         -0.5596628655       -0.0391861463        2.5694818063
 H          1.8668579561       -0.0771421549        3.1175182321
 H          6.5594332056       -0.1115224985        1.4578513109
 H          8.0972024527       -0.0918784344       -0.4825555578
 H          7.1789116335       -0.0250049647       -2.7794251475
 H          4.7203449231        0.0215136470       -3.1198329439
 H          0.4146444023        0.0422889658       -1.6083961699
 H         -0.4958683182       -2.3403233079        0.2753073575
 H         -1.6294622063       -4.5068087074        0.0837287604
 H         -4.0811078537       -4.5842067063       -0.2749404080
 H         -5.3512024054       -2.5104868548       -0.4485197926
  52
        -81.68148223
 C         -5.6857218504       -0.1072904405       -0.3387312705
 C         -4.4173513640        0.1076765013        0.5079859393
 C         -4.7996316091        0.4056440496        1.9717851498
 C         -3.6561749649        1.2977636483       -0.0347082993
 C         -4.2862600971        2.5296821559       -0.1418080967
 C         -3.6232697490        3.6526658102       -0.6023556610
 C         -2.2850924758        3.5612684218       -0.9559832298
 C         -1.6306990282        2.3557513558       -0.8521816730
 C         -2.3035675414        1.2089238637       -0.4033457358
 N         -1.6242407753        0.0141830873       -0.3246608825
 C         -0.2285833019       -0.0137153423       -0.6069412440
 C          0.2476216077       -0.0586225310       -1.9160653579
 C          1.5982931973       -0.0871105741       -2.1565709950
 C          2.5277928580       -0.0763862133       -1.0869192399
 C          3.9347756141       -0.1059206553       -1.3469003819
 O          4.4169350609       -0.1422453046       -2.5089577956
 C          4.7714697439       -0.0824777621       -0.1589372242
 C          6.1701603067       -0.1020924004       -0.2674858249
 C          6.9587375037       -0.0886365462        0.8638012367
 C          6.3798679213       -0.0553896844        2.1227371626
 C          4.9968252121       -0.0329886373        2.2500533132
 C          4.1955861259       -0.0441979270        1.1209570647
 O          2.8438949704       -0.0172682524        1.3229178410
 C          2.0276792756       -0.0308179609        0.2327509659
 C          0.6703567442       -0.0018678090        0.4706540721
 C         -2.2435980782       -1.1514034946        0.0666363099
 C         -1.5213620412       -2.3543155201        0.0409059145
 C         -2.1064388172       -3.5356705715        0.4335398613
 C         -3.4250200055       -3.5425507292        0.8643159341
 C         -4.1448162590       -2.3616795109        0.8800237947
 C         -3.5861102898       -1.1564255883        0.4784506586
 H         -6.2639462410       -0.9461412649        0.0365376451
 H         -5.4121585658       -0.3120791494       -1.3718159259
 H         -6.3203164484        0.7734802552       -0.3188359278
 H         -5.3535003338       -0.4244864230        2.4013453886
 H         -3.9010453912        0.5640427619        2.5652932274
 H         -5.4140471800        1.2994671198        2.0341413108
 H         -5.3217533652        2.6247996866        0.1463714595
 H         -4.1445134292        4.5944044641       -0.6760762976
 H         -1.7522711459        4.4319530940       -1.3057954876
 H         -0.5872674298        2.2835362739       -1.1141043399
 H         -0.4561439127       -0.0753103147       -2.7352236834
 H          1.9945945309       -0.1250688264       -3.1582726895
 H          6.6012311190       -0.1287443245       -1.2556458183
 H          8.0338758269       -0.1039369392        0.7631144632
 H          6.9956623172       -0.0461025795        3.0088036953
 H          4.5219067429       -0.0070277588        3.2183848778
 H          0.3082211382        0.0317639216        1.4860758301
 H         -0.4972366332       -2.3443593799       -0.2962121290
 H         -1.5366539409       -4.4514972651        0.4052014671
 H         -3.8913316330       -4.4627003726        1.1811034122
 H         -5.1700635291       -2.3879713562        1.2161257998
  52
        -81.67939079
 C         -3.8407205646        0.3028984631       -2.3098402254
 C         -4.2406960441        0.1872427191       -0.8196462930
 C         -5.7657615885        0.2815456919       -0.7123909047
 C         -3.5460624469        1.3199937697       -0.0925536003
 C         -4.1129826369        2.5777607225        0.0413684848
 C         -3.4182406354        3.6329226266        0.6087287013
 C         -2.1169312418        3.4467718652        1.0481857663
 C         -1.5272803999        2.2087503478        0.9306674192
 C         -2.2303863028        1.1350722748        0.3686142801
 N         -1.6326044382       -0.1056667492        0.3064782792
 C         -0.2381400979       -0.2048018571        0.5701379848
 C          0.2508641196       -0.5808288536        1.8213225233
 C          1.6029879157       -0.6449532320        2.0420859114
 C          2.5232037263       -0.3249992325        1.0127699472
 C          3.9320657580       -0.3837805727        1.2560397055
 O          4.4224505824       -0.7107025703        2.3679970642
 C          4.7593852600       -0.0446776247        0.1106302851
 C          6.1588305784       -0.0636304371        0.2079232946
 C          6.9390525226        0.2604988873       -0.8821062690
 C          6.3505052352        0.6087649145       -2.0875119752
 C          4.9663523054        0.6347642421       -2.2022823150
 C          4.1731625352        0.3119210344       -1.1142871449
 O          2.8196967534        0.3624576746       -1.2996188186
 C          2.0117543219        0.0484271195       -0.2489780847
 C          0.6519759768        0.1150772893       -0.4658995093
 C         -2.3827618117       -1.2443079187        0.1108305702
 C         -1.8215244816       -2.5015230345        0.3701294375
 C         -2.5799208334       -3.6444145937        0.2528268168
 C         -3.9086062169       -3.5525928882       -0.1302195450
 C         -4.4544345831       -2.3164528680       -0.4346304336
 C         -3.7149913388       -1.1487055750       -0.3345741653
 H         -4.2925560043       -0.5044338438       -2.8816790015
 H         -2.7603546987        0.2422187303       -2.4221035433
 H         -4.1773457312        1.2552125088       -2.7132160874
 H         -6.2404011284       -0.5002418759       -1.2972935638
 H         -6.0834643890        0.1923724437        0.3239784072
 H         -6.1216640827        1.2263058525       -1.1111315492
 H         -5.1166503649        2.7592163040       -0.3057992703
 H         -3.8912437374        4.5985167775        0.6996733316
 H         -1.5657291562        4.2644081049        1.4861677407
 H         -0.5201069372        2.0512112489        1.2821980848
 H         -0.4460432142       -0.8082006446        2.6149527423
 H          2.0085555399       -0.9285054373        2.9997508578
 H          6.5969887295       -0.3381215091        1.1542025344
 H          8.0149145737        0.2400233726       -0.7913363858
 H          6.9597816367        0.8610998408       -2.9416516271
 H          4.4847129227        0.9046793086       -3.1290716820
 H          0.2828427100        0.4097120716       -1.4355621564
 H         -0.7876598373       -2.5666559713        0.6685505596
 H         -2.1368521220       -4.6057246166        0.4620692265
 H         -4.5149016037       -4.4413167042       -0.2140146044
 H         -5.4791914442       -2.2815371646       -0.7652751302
  52
        -81.67935255
 C         -5.8087309461        0.1590996437       -0.7371614249
 C         -4.4907222929        0.0730961727        0.0406464327
 C         -4.8071851440       -0.0119487483        1.5524309402
 C         -3.6368411307        1.3104113236       -0.1524707916
 C         -4.1955177738        2.5676232987       -0.3243307392
 C         -3.4187864480        3.7135730473       -0.3557961302
 C         -2.0476325479        3.6212484813       -0.1778639609
 C         -1.4623953271        2.3872512220       -0.0080195960
 C         -2.2384178984        1.2205560180       -0.0209462792
 N         -1.6268139911       -0.0087510214        0.0899783136
 C         -0.2443730761       -0.0923842819        0.4162534492
 C          0.1366478400       -0.4730420548        1.7016275787
 C          1.4653874167       -0.5707741761        2.0279714095
 C          2.4703804925       -0.2912692635        1.0696484493
 C          3.8543233687       -0.4012910414        1.4167050747
 O          4.2489997806       -0.7337829566        2.5645259826
 C          4.7766179858       -0.1079541240        0.3331340211
 C          6.1630098253       -0.1856389420        0.5329028827
 C          7.0340785180        0.0971716233       -0.4982022169
 C          6.5507266786        0.4620896087       -1.7447087202
 C          5.1810749928        0.5440948960       -1.9614763438
 C          4.2973660828        0.2609042200       -0.9338848974
 O          2.9639948389        0.3601692021       -1.2198698283
 C          2.0680955483        0.0830438211       -0.2315508192
 C          0.7318357940        0.1828117402       -0.5551557166
 C         -2.3067278784       -1.1714667354       -0.2006493334
 C         -1.5843923365       -2.3535246654       -0.4133845114
 C         -2.2328187102       -3.5227254549       -0.7387506289
 C         -3.6138712942       -3.5321304553       -0.8584635938
 C         -4.3326623527       -2.3690904258       -0.6399128771
 C         -3.7085405392       -1.1749576817       -0.3132181106
 H         -6.4295215450       -0.7095160561       -0.5419540063
 H         -5.6172249294        0.2233916419       -1.8058174406
 H         -6.3837348202        1.0263327071       -0.4284259872
 H         -5.4106452066       -0.8927492100        1.7582840154
 H         -3.8883900891       -0.0791741280        2.1312228249
 H         -5.3515392083        0.8739287506        1.8711553628
 H         -5.2626528173        2.6758688664       -0.4275486462
 H         -3.8871593360        4.6751188270       -0.4986529973
 H         -1.4363030718        4.5102088511       -0.1731634269
 H         -0.3967212718        2.3103220230        0.1326085945
 H         -0.6247291634       -0.6854657497        2.4376585301
 H          1.7861465544       -0.8589936209        3.0157883214
 H          6.5182570006       -0.4706263168        1.5101978246
 H          8.0986187524        0.0311779795       -0.3286814576
 H          7.2312036432        0.6848767607       -2.5522329294
 H          4.7805270582        0.8286120111       -2.9223483106
 H          0.4460442294        0.4624910987       -1.5572602970
 H         -0.5094698698       -2.3345562441       -0.3285726349
 H         -1.6638146251       -4.4244386678       -0.9033724505
 H         -4.1328276814       -4.4428671089       -1.1146678970
 H         -5.4058692905       -2.4135215553       -0.7221475103
  52
        -81.67920203
 C         -5.8631489519        0.1363606722       -0.5291515943
 C         -4.4748710776        0.0662522756        0.1119064159
 C         -4.6464199921       -0.0061425291        1.6483810262
 C         -3.6428453190        1.3006591790       -0.1697275235
 C         -4.2068000205        2.5440705328       -0.4053468636
 C         -3.4309435531        3.6877293784       -0.4997702411
 C         -2.0586134705        3.6071925230       -0.3239277978
 C         -1.4674462334        2.3839208007       -0.1008157933
 C         -2.2420710305        1.2180377722       -0.0525756222
 N         -1.6314901058       -0.0084691672        0.0965090428
 C         -0.2489570394       -0.0839103058        0.4246863682
 C          0.1306311012       -0.4039627435        1.7263480992
 C          1.4593176073       -0.4867620077        2.0584557615
 C          2.4649480188       -0.2526622251        1.0892849451
 C          3.8486253167       -0.3403774588        1.4442742896
 O          4.2421817570       -0.6159891147        2.6075640859
 C          4.7721465769       -0.0925101069        0.3505793931
 C          6.1585566542       -0.1474980889        0.5588025692
 C          7.0308457584        0.0896714575       -0.4826385829
 C          6.5488784922        0.3855209405       -1.7480375972
 C          5.1793088052        0.4449320684       -1.9730527873
 C          4.2942412819        0.2083605114       -0.9349536198
 O          2.9612252326        0.2850471476       -1.2289415798
 C          2.0642231221        0.0575086211       -0.2290861019
 C          0.7282443775        0.1425427690       -0.5582449328
 C         -2.3085320683       -1.1730228484       -0.1960296910
 C         -1.5871815272       -2.3515420525       -0.4254618805
 C         -2.2387679690       -3.5123597256       -0.7761362326
 C         -3.6187041189       -3.5145624879       -0.9074414834
 C         -4.3382521006       -2.3566694421       -0.6618715520
 C         -3.7116589541       -1.1752726412       -0.2990616201
 H         -6.4533322721       -0.7338995958       -0.2585112202
 H         -5.7852531884        0.1897630849       -1.6125941465
 H         -6.4072880585        1.0042025349       -0.1690723599
 H         -5.1714413804        0.8762975261        2.0070924223
 H         -5.2166462938       -0.8921190948        1.9182891199
 H         -3.6781874436       -0.0550150219        2.1416290040
 H         -5.2744098089        2.6433497006       -0.5106760661
 H         -3.9014242165        4.6401510720       -0.6894314917
 H         -1.4499180567        4.4971437550       -0.3651524060
 H         -0.3999213299        2.3149511396        0.0311955750
 H         -0.6309794197       -0.5803024712        2.4716158914
 H          1.7787176354       -0.7274642940        3.0592865242
 H          6.5128211893       -0.3797053440        1.5505232628
 H          8.0952690588        0.0424131184       -0.3062992300
 H          7.2303853170        0.5706450896       -2.5639396660
 H          4.7800073980        0.6743432361       -2.9486645403
 H          0.4435490737        0.3731113451       -1.5730156692
 H         -0.5125698490       -2.3361495161       -0.3372433338
 H         -1.6718947899       -4.4130055300       -0.9541404431
 H         -4.1373680495       -4.4173121567       -1.1911016776
 H         -5.4110845561       -2.3951056108       -0.7530122548
  52
        -81.67867413
 C         -4.4617972326        0.0917532068       -1.8075842438
 C         -4.4424287274        0.1408349961       -0.2603076636
 C         -5.8825265508        0.2859535144        0.2357446990
 C         -3.5710063126        1.3204479576        0.1179064054
 C         -4.0844378808        2.5854695493        0.3520813315
 C         -3.2583559948        3.6857378514        0.5141728615
 C         -1.8857339352        3.5380323723        0.3978494545
 C         -1.3453755925        2.2897445869        0.1829015356
 C         -2.1713098971        1.1628693390        0.0858628684
 N         -1.6234430403       -0.0985295561       -0.0338504123
 C         -0.2422688070       -0.2593970753       -0.3213486476
 C          0.1403092900       -0.7503260416       -1.5700919594
 C          1.4680392984       -0.8553903016       -1.8959344767
 C          2.4732689022       -0.4567258816       -0.9807323714
 C          3.8550319511       -0.5119373626       -1.3491183435
 O          4.2497375434       -0.9189141484       -2.4724880191
 C          4.7748311855       -0.0505879160       -0.3228574483
 C          6.1547987522        0.0007945895       -0.5697543420
 C          7.0221694085        0.4511020327        0.4032696298
 C          6.5414590741        0.8549162052        1.6388917748
 C          5.1780958050        0.8110513136        1.9018130841
 C          4.2979375559        0.3652649719        0.9304326226
 O          2.9693580811        0.3622797693        1.2539510692
 C          2.0721544141       -0.0068602777        0.2971161234
 C          0.7368830941        0.0860545808        0.6254231111
 C         -2.3878129079       -1.2205819594        0.2102611057
 C         -1.7544796627       -2.4345437908        0.5048213170
 C         -2.4969966130       -3.5541475466        0.8059802066
 C         -3.8810695560       -3.4780397684        0.8273860090
 C         -4.5127773488       -2.2825963167        0.5254513836
 C         -3.7924762506       -1.1429723326        0.2075152758
 H         -5.0525582872       -0.7566945705       -2.1454782220
 H         -3.4535447744       -0.0093046045       -2.2028423119
 H         -4.8962365518        1.0067453386       -2.2038559211
 H         -5.9149024314        0.3281539019        1.3219787242
 H         -6.3353857469        1.1861678940       -0.1691019661
 H         -6.4884827484       -0.5481841049       -0.1053155939
 H         -5.1498982433        2.7365124836        0.4019131226
 H         -3.6887460496        4.6570528348        0.7028141336
 H         -1.2351028821        4.3949714881        0.4794191552
 H         -0.2778023520        2.1766464824        0.0926982198
 H         -0.6213522774       -1.0304790594       -2.2831564054
 H          1.7875282478       -1.2207589287       -2.8582451987
 H          6.5079677970       -0.3183968802       -1.5374350026
 H          8.0816919868        0.4857096132        0.1970822144
 H          7.2190540753        1.2064655814        2.4016105169
 H          4.7796504379        1.1239579093        2.8543316661
 H          0.4554475424        0.4175014444        1.6128372027
 H         -0.6767242886       -2.4774753583        0.5076750196
 H         -1.9985533216       -4.4836789677        1.0334994684
 H         -4.4707195592       -4.3482826127        1.0712139665
 H         -5.5898641746       -2.2569549442        0.5367428713
