72
 energy: -111.548727632445 gnorm: 0.000079146662 xtb: 6.7.1 (edcfbbe)
C           -8.12070488132453       -1.06100735883146        0.69414020123791
C           -7.23589187414427        0.00006887223803        0.00796817567911
C           -8.12026982616888        1.06208059044584       -0.67732304832088
C           -6.39043914077974        0.68211290924499        1.05949201218136
C           -7.00206005980286        1.36034995346076        2.10527841219016
C           -6.27020444830626        2.00928858270226        3.08313210334007
C           -4.88255484655027        1.99805376488936        3.02483462815772
C           -4.24672287608529        1.33491743951864        2.00143400177077
C           -4.98465366199443        0.66184252840973        1.01337465619192
N           -4.32098807883414       -0.00136090078717        0.00646512052076
C           -2.89471325163553       -0.00140516675634        0.00517271480616
C           -2.19698894873635        0.90753419312406       -0.78673290845882
C           -0.81958353591496        0.90779352911886       -0.78313228224894
C           -0.09607511242692       -0.00122791910952        0.00177737761448
C            1.36034501465464       -0.00119000587359       -0.00009853644748
C            2.08349175821208        1.18598057238177       -0.17811846385008
C            3.47409585059852        1.16476967304024       -0.17038969860719
C            4.28950087173039        2.35801441609433       -0.29984208941025
C            5.66777991544365        2.27109061603458       -0.02651819065414
C            6.48838283044834        3.36422991272908       -0.12535440482631
C            5.96034580429909        4.60756762721844       -0.51296830514727
C            6.78729381503520        5.73268854414886       -0.61531449957254
N            7.46501963974119        6.66236849156146       -0.69874114127771
C            4.58825770063363        4.70606832102677       -0.79925945979141
C            3.77590717884776        3.60490716494214       -0.69364992475097
N            4.11585909084703       -0.00061787399771       -0.00492979547667
C            3.47511846609248       -1.16603386092102        0.16314062229340
C            4.29162639678986       -2.35900811071874        0.28994608094458
C            3.78115442578002       -3.60414513382879        0.69301390995280
C            4.59427938457148       -4.70501242428795        0.79629541297024
C            5.96388911233938       -4.60779393409148        0.49807168160868
C            6.79169673401593       -5.73255831317602        0.59803164751003
N            7.47006934631147       -6.66190233120143        0.67966665120366
C            6.48880480014261       -3.36612945121545        0.10107199906479
C            5.66750405715987       -2.27323860057689        0.00477873037320
C            2.08459891346183       -1.18816644572369        0.17578353569160
C           -0.81763919970482       -0.91020769815323        0.78846507927971
C           -2.19506437678766       -0.91036776957716        0.79535414292866
C           -4.98635792488494       -0.66394448077360       -0.99974663660560
C           -4.25011049338885       -1.33767732644210       -1.98862301783172
C           -4.88764145709449       -2.00023033653468       -3.01133424293809
C           -6.27536015256590       -2.01018681829196       -3.06814277949954
C           -7.00556755940946       -1.36054118239593       -2.08952702262297
C           -6.39220665761872       -0.68287596290840       -1.04438919501565
H           -7.49744939925491       -1.81266786217950        1.17468899705934
H           -8.75283963847865       -0.60404189252630        1.44917499828758
H           -8.75930207104278       -1.55580081683916       -0.03100927632092
H           -8.75357643215196        0.60578390805676       -1.43178261308872
H           -7.49672312781204        1.81314067713289       -1.15843440960719
H           -8.75768494409068        1.55748784583125        0.04844939623868
H           -8.07852479137245        1.38764796992806        2.16340820677922
H           -6.77714049212832        2.52573537558508        3.88352765482480
H           -4.29996339994172        2.50832737710327        3.77633217860803
H           -3.16963183226909        1.33141051416259        1.95260603324347
H           -2.74332973080858        1.60676307669772       -1.40249436566096
H           -0.29134656768967        1.60255760120447       -1.41776616645188
H            1.56522963369625        2.12669108097807       -0.25887751362659
H            6.06691861165165        1.31452101037341        0.27590854751467
H            7.54405741000853        3.28333360120786        0.09270561306568
H            4.18307168506452        5.66009055482990       -1.10633712253517
H            2.72923586746539        3.71175801007101       -0.93337607868115
H            2.73657990448652       -3.70955386927996        0.94239223363592
H            4.19162799337100       -5.65772926714394        1.11067715468555
H            7.54261690197299       -3.28624483355140       -0.12617938280555
H            6.06424920968480       -1.31792747331289       -0.30469129575972
H            1.56723404511218       -2.12925597370302        0.25806194008847
H           -0.28773100395309       -1.60490717980020        1.42178664243050
H           -2.73981611303171       -1.60979467282959        1.41227917829697
H           -3.17296940911285       -1.33515390420523       -1.94099652661127
H           -4.30630063604129       -2.51100756560984       -3.76345594499357
H           -6.78361657075403       -2.52619284875152       -3.86798454572151
H           -8.08211679731338       -1.38678641996571       -2.14652975897182
