72
 energy: -111.628715937962 gnorm: 0.000122259018 xtb: 6.7.1 (edcfbbe)
C           -7.35442383096621       -0.59116794379236        1.11634170542861
C           -6.47297325935905       -0.00005182769687       -0.00014041766268
C           -7.35403149785980        0.59103585871226       -1.11694891958042
C           -5.62294574214686        1.10957145094573        0.59063752546597
C           -6.24183749751786        2.20511781893487        1.17740557786687
C           -5.52218841350418        3.23714244617412        1.75164210319558
C           -4.14029138387752        3.17615082264366        1.75511545798597
C           -3.49942285129685        2.10009913367949        1.17743570841109
C           -4.22445539100471        1.06465635798526        0.57944659000927
N           -3.55062880150712        0.00008097501413        0.00023093934890
C           -2.12903739362902        0.00018799932497        0.00032691375805
C           -1.43035242905624        0.77540742184610       -0.91854196159655
C           -0.04903931450109        0.77947064576694       -0.91245281918850
C            0.65904980729647        0.00024278962308        0.00035893593008
C            2.12931866962843        0.00017227853303        0.00027111719994
C            2.84590777418444        1.18212304481830       -0.16934979879596
C            4.23935501539873        1.13549173403661       -0.17836214144257
C            5.06426578912255        2.33930580263828       -0.36615563984848
C            6.35841368736635        2.36267908635925        0.15775627745045
C            7.16386082305625        3.47017739920224        0.00218711598253
C            6.68229879564635        4.58301552604153       -0.69216317398703
C            7.49871107360133        5.72326278072596       -0.85560178116364
N            8.16115162343211        6.65156458293444       -0.98833553058368
C            5.39352907927482        4.56559883747551       -1.22981495377552
C            4.59609475177335        3.45168209554147       -1.06610952068730
N            4.90624979437399        0.00001222596917        0.00002489927532
C            4.23925600783206       -1.13539235162696        0.17852823887455
C            5.06404894785595       -2.33931516911094        0.36611825828387
C            4.59584425809386       -3.45169705281680        1.06604645102852
C            5.39313296864834       -4.56574540803529        1.22948834703317
C            6.68182798847829       -4.58332913811922        0.69161281052281
C            7.49803595374076       -5.72366118339943        0.85474145829310
N            8.16033650086683       -6.65210396046073        0.98725027707528
C            7.16342186192205       -3.47044711585349       -0.00268977121154
C            6.35811433021952       -2.36282313186902       -0.15800168772437
C            2.84580216956388       -1.18186049270253        0.16976846258740
C           -0.04902917820842       -0.77897495619279        0.91318740385892
C           -1.43034303639988       -0.77496464016117        0.91924590607466
C           -4.22420985582604       -1.06458485607155       -0.57910627775064
C           -3.49893773437951       -2.09998050050118       -1.17688687392909
C           -4.13956522873060       -3.17611907619373       -1.75467242243345
C           -5.52145679458457       -3.23724607227191       -1.75152302448147
C           -6.24134038214881       -2.20526528097555       -1.17750163891657
C           -5.62269376186403       -1.10963747440629       -0.59062697158179
H           -6.72735797078089       -1.00780478080238        1.90305653977359
H           -7.99043700744449        0.17315210427647        1.55425262004554
H           -7.99067698001405       -1.38264229875748        0.73003046609597
H           -7.98987352470513       -0.17330295384550       -1.55507731880237
H           -6.72668757548975        1.00766781013061       -1.90344477879194
H           -7.99042879911960        1.38251092721217       -0.73087523900033
H           -7.31990233227133        2.26029360420650        1.19125781132936
H           -6.03681959247857        4.07518272699055        2.19749033649307
H           -3.55750174134794        3.96473688946591        2.20857331369326
H           -2.42121145329204        2.05671102402776        1.19237497830795
H           -1.97783757741164        1.37356946395161       -1.63200771833661
H            0.48556901075667        1.37187199279889       -1.63995430534045
H            2.32470364518767        2.12162023615426       -0.25709205625178
H            6.71549154550480        1.49499487428450        0.69014906292680
H            8.16318185697656        3.48733191903248        0.41159760818307
H            5.03122237298367        5.42538035856943       -1.77429804372469
H            3.61078128232025        3.44357516779870       -1.50590333511148
H            3.61060882541486       -3.44348933000616        1.50601547942316
H            5.03079660067593       -5.42553766017802        1.77393724320103
H            8.16267641838382       -3.48770770346852       -0.41225983714184
H            6.71522784821310       -1.49513300134134       -0.69036348837334
H            2.32450345167818       -2.12129757232713        0.25759038169479
H            0.48558561252680       -1.37136314077754        1.64069543463962
H           -1.97782166132157       -1.37315634944533        1.63269186329518
H           -2.42072791542987       -2.05648950914285       -1.19158281668896
H           -3.55659087252956       -3.96466469024432       -2.20796312870367
H           -6.03590069977914       -4.07535556757176       -2.19745831003943
H           -7.31939666023166       -2.26053502366793       -1.19162191739958
