72
 energy: -111.628760745241 gnorm: 0.000144141839 xtb: 6.7.1 (edcfbbe)
C           -8.10249252495785       -0.58895393822318        1.11308368315756
C           -7.22246422082535       -0.00440477488429       -0.00799101882381
C           -8.10501126221894        0.57791264690926       -1.12822842964572
C           -6.37334790273432        1.11008104911624        0.57487986900644
C           -6.99317821391739        2.20951108214496        1.15333634406283
C           -6.27445387000622        3.24588468295775        1.72083117255691
C           -4.89254323432082        3.18553005880727        1.72577611622436
C           -4.25074297509746        2.10574688953243        1.15617446079615
C           -4.97481186009584        1.06567880250501        0.56510590433132
N           -4.30003677778818       -0.00254047649654       -0.00615108265912
C           -2.87832049685135       -0.00236612562732       -0.00389444759347
C           -2.17821546603628        0.76563245289476       -0.92777657655274
C           -0.79684819799307        0.77070338699898       -0.91903251044582
C           -0.09054750801693       -0.00114203381876        0.00139724143066
C            1.38010010666051        0.00006556940114        0.00409991324429
C            2.09581803031794        1.18277950798808       -0.16264636585696
C            3.48905981693480        1.14236004761720       -0.13430047732824
C            4.31076116861393        2.35447212155510       -0.27808022948174
C            5.59778681049923        2.24307051667616       -0.80781591972769
C            6.39816251317537        3.35497098937782       -0.95884193579918
C            5.91865577117856        4.60937583242225       -0.57264060949785
C            6.72978046496029        5.75517258683409       -0.72357062893402
N            7.38769439795718        6.68815707009157       -0.84530072425280
C            4.63758881175876        4.72939976539996       -0.02949090634659
C            3.84460167673236        3.60952660241507        0.11420795454729
N            4.15786728916426        0.00283691233146        0.00711801022874
C            3.49102029314809       -1.13802530373519        0.14736927701165
C            4.31528607933202       -2.34841201894531        0.29109348952040
C            3.85180759825872       -3.60449497812194       -0.10110515238648
C            4.64792814548848       -4.72238235094926        0.04073004874816
C            5.92955818809379       -4.59934963155691        0.58186601133764
C            6.74429078803736       -5.74297195528340        0.72979083949408
N            7.40525948295716       -6.67418163505784        0.84861501973469
C            6.40619416239555       -3.34398081118303        0.96849058233210
C            5.60266329406009       -2.23409983818666        0.81941527000635
C            2.09776787610859       -1.18117692065534        0.17287131383833
C           -0.79960204350214       -0.77384914801711        0.91894112304984
C           -2.18102967464976       -0.76999753570696        0.92241437985546
C           -4.97275266449528       -1.07082635469964       -0.57966575089872
C           -4.24653978984852       -2.10920958358362       -1.17105170872735
C           -4.88620442509282       -3.18909830037948       -1.74285323338581
C           -6.26804472698898       -3.25132381703451       -1.73962030618583
C           -6.98887071999299       -2.21659563624431       -1.17177292265169
C           -6.37120948471468       -1.11694343724973       -0.59144180220962
H           -7.47444475293433       -1.00042231744892        1.90173687216752
H           -8.73834794164946        0.17785171928280        1.54688194427307
H           -8.73880173233867       -1.38307757033080        0.73232537717413
H           -8.74126116333935       -0.18989984600956       -1.55963734028540
H           -7.47874986275782        0.98860932400141       -1.91870088376588
H           -8.74118098107179        1.37215160227978       -0.74752175611719
H           -8.07128182126973        2.26429302624118        1.16601770211144
H           -6.78982148439791        4.08683692565463        2.16029854361058
H           -4.31055627204521        3.97760884661659        2.17412487528729
H           -3.17253556160572        2.06290083808090        1.17193794344391
H           -2.72439496695542        1.35791944191049       -1.64711394101398
H           -0.26099969500686        1.35832439242329       -1.64965645397788
H            1.57439647886513        2.11502794264512       -0.30723603582580
H            5.95365174395632        1.26726404656368       -1.09941756629787
H            7.39196607965156        3.26689607731625       -1.37256124232070
H            4.27723331649438        5.70021671886644        0.27795550204775
H            2.86549428758449        3.71293822451824        0.55616942228728
H            2.87237867552800       -3.71029895769223       -0.54176259783869
H            4.28965697180464       -5.69392872209150       -0.26686462733729
H            7.40036490531456       -3.25355120719551        1.38082227819513
H            5.95640544889297       -1.25757021424623        1.11117944739848
H            1.57779468571771       -2.11441572570022        0.31627417786392
H           -0.26598450967137       -1.36104640474372        1.65153733636255
H           -2.72942968195554       -1.36279041996130        1.63964359748284
H           -3.16836379783723       -2.06486210341677       -1.18527142386194
H           -4.30263366647969       -3.97982752570954       -2.19152722235239
H           -6.78173769050614       -4.09248971264901       -2.18064641884639
H           -8.06687550465904       -2.27292699633684       -1.18551950077240
