  59
  -97.8852766082000        1.00000000000000      !
 C          0.5416560833        3.4758055613       -1.5938420835
 C         -0.2034644523        2.3732725747       -1.9707448468
 C          0.2971998695        1.0958041189       -1.7949985562
 C          1.5461214336        0.8944007639       -1.2105067508
 C          2.3101079863        2.0210638700       -0.8742121795
 C          1.8079562461        3.2970872041       -1.0604602972
 O          3.5742512748        1.9161532520       -0.3619935316
 C          4.0428793195        0.6588518880       -0.0926629026
 C          5.2951008890        0.5731907561        0.4917330554
 C          5.8235000219       -0.6603640649        0.8354140456
 C          5.0808053136       -1.8046331922        0.6115465006
 C          3.8289994476       -1.7257962368        0.0255995954
 C          3.2951358328       -0.4991838657       -0.3585477369
 N          2.0488366681       -0.3837641284       -0.9730207479
 C          1.1259919196       -1.4463326286       -0.9438330215
 C          1.3051751502       -2.6674616952       -1.5623537964
 C          0.3321814299       -3.6520007520       -1.4061766840
 C         -0.8262427524       -3.3996033886       -0.6353149473
 C         -1.8262806456       -4.3341973113       -0.3537307411
 C         -2.9270843681       -3.9889788010        0.4323195626
 C         -3.0844164950       -2.7062885375        0.9073299272
 C         -2.1168661709       -1.7306412078        0.6232650319
 N         -2.2882465593       -0.3669772382        0.9324817124
 C         -3.2955817425        0.3767369888        0.3185854413
 C         -4.3909243192       -0.2160405768       -0.3074213714
 C         -5.3831818782        0.5541816336       -0.8854829210
 C         -5.3004522696        1.9362064006       -0.8680264051
 C         -4.2016418074        2.5450975005       -0.2897509420
 C         -3.2021822035        1.7793945654        0.2926919890
 O         -2.1311228338        2.4552567588        0.7968619273
 C         -1.1170304916        1.7171217719        1.3334220488
 C          0.0101557250        2.3971704992        1.7607197160
 C          1.0622054954        1.7011141474        2.3352585240
 C          0.9562537222        0.3335215238        2.5371742226
 C         -0.1664161217       -0.3511674544        2.1183399247
 C         -1.2079535991        0.3209284456        1.4601454866
 C         -0.9429346777       -2.0844334302       -0.0920492294
 N          0.0161663852       -1.1796223456       -0.2272921247
 H          0.1506555536        4.4723502428       -1.7260641896
 H         -1.1814236193        2.5022037730       -2.4095556212
 H         -0.2845182986        0.2459529521       -2.1116667981
 H          2.4250236035        4.1359163412       -0.7798249930
 H          5.8353001892        1.4881133562        0.6754020706
 H          6.8020468954       -0.7193719365        1.2849510021
 H          5.4710865012       -2.7703310477        0.8938531050
 H          3.2505839447       -2.6228829583       -0.1217380843
 H          2.1755998484       -2.8420123692       -2.1764528548
 H          0.4464798000       -4.6099068404       -1.8888614319
 H         -1.7179508271       -5.3448526983       -0.7175704838
 H         -3.6636344346       -4.7415519778        0.6715404229
 H         -3.9245917651       -2.4470252886        1.5344210673
 H         -4.4550932843       -1.2903615723       -0.3543728397
 H         -6.2220054145        0.0665643004       -1.3574762449
 H         -6.0750158293        2.5378101292       -1.3168446670
 H         -4.0861906017        3.6172025432       -0.2861919969
 H          0.0490164957        3.4650885529        1.6214251426
 H          1.9504902670        2.2311239712        2.6418414996
 H          1.7601583136       -0.2060856595        3.0145739242
 H         -0.2647541221       -1.4076013196        2.3083437415
