  97
       -159.24892103
 C        -10.2110039705       -2.9595319098       -3.7615968963
 C        -10.8916995854       -2.2038082507       -2.8191347090
 C        -10.1931516987       -1.4681424733       -1.8830099095
 C         -8.7975984197       -1.4810012666       -1.8809166240
 C         -8.0590140113       -0.7059146725       -0.8933184189
 N         -8.7621062828        0.0040576116        0.0116511547
 C         -8.0501127401        0.7055286251        0.9159369608
 C         -8.7805129625        1.4869578230        1.9050979349
 C         -8.0944498069        2.2232922391        2.8723989997
 C         -8.7933759635        2.9623495236        3.8044818731
 C        -10.1806384498        2.9784043902        3.7856378806
 C        -10.8679163945        2.2489780137        2.8274205280
 C        -10.1759825536        1.5067116621        1.8917527467
 N         -6.7430451448        0.7063289929        0.9410673258
 C         -6.0665494618       -0.0085177206        0.0084209992
 C         -4.6494189362       -0.0114818019        0.0026840509
 C         -3.9293844626       -0.7577701725       -0.9563631209
 C         -2.5602746244       -0.7572773549       -0.9628017086
 C         -1.8480112203       -0.0122474827       -0.0130648980
 N         -0.4479726971       -0.0102229356       -0.0215064118
 C          0.3539342730        1.1068227323        0.0130776742
 C          0.0035449797        2.4517518093        0.0160837909
 C          1.0178976949        3.3850936956        0.0413426880
 C          2.3720200184        3.0163165109        0.0491597635
 C          3.4168555000        4.0473490646        0.0829961359
 C          3.2512095293        5.1866527561        0.8843130840
 C          4.2051065812        6.1823769043        0.9538917836
 C          5.3492578035        6.0246124359        0.1915047090
 O          6.3994934230        6.8845848514        0.1140051031
 C          7.2893422472        6.3226058273       -0.7507898705
 C          8.5100145573        6.8501569555       -1.1310835087
 C          9.2669046990        6.1141423042       -2.0255415174
 C          8.8204224562        4.8928492222       -2.5234270940
 C          7.6010573945        4.3669517658       -2.1430093911
 C          6.8241910797        5.0881693944       -1.2465043571
 C          5.5417789903        4.8901063754       -0.6229284628
 C          4.5747718224        3.8994159934       -0.6741919871
 C          2.7167387138        1.6665433449        0.0131291175
 C          1.7151574796        0.7135380794       -0.0066418171
 C          1.7179564302       -0.7246562805       -0.0534264286
 C          2.7231156133       -1.6737357830       -0.0752559616
 C          2.3833712955       -3.0248306939       -0.1040791153
 C          3.4334453525       -4.0509849642       -0.1264682724
 C          3.2842010486       -5.1933463645       -0.9262417804
 C          4.2435074375       -6.1852214413       -0.9781545034
 C          5.3745600822       -6.0210012857       -0.1976704467
 O          6.4252084420       -6.8783502723       -0.0966739358
 C          7.2966968834       -6.3116574668        0.7837220436
 C          8.5091206127       -6.8360708099        1.1934407534
 C          9.2450364311       -6.0955063082        2.1017297901
 C          8.7870014625       -4.8724492507        2.5843525467
 C          7.5759766819       -4.3494060582        2.1745046044
 C          6.8200055341       -5.0757111414        1.2645396888
 C          5.5498279489       -4.8827937828        0.6153599162
 C          4.5791715648       -3.8951111764        0.6471295456
 C          1.0312870330       -3.3998192429       -0.0913036877
 C          0.0132598265       -2.4703424145       -0.0627591844
 C          0.3583603255       -1.1240568990       -0.0630660196
 C         -2.5494806453        0.7321005255        0.9456610483
 C         -3.9183735093        0.7332728762        0.9547391277
 N         -6.7521054303       -0.7187725752       -0.9204269260
 C         -8.1181474815       -2.2439777540       -2.8324055694
 C         -8.8235190519       -2.9768381719       -3.7642802452
 H        -10.7598104535       -3.5348730406       -4.4927584273
 H        -11.9720865856       -2.1905015015       -2.8173797524
 H        -10.7077646450       -0.8751272289       -1.1428685484
 H         -7.0155702889        2.2012847286        2.8746799689
 H         -8.2587796382        3.5315199103        4.5513232073
 H        -10.7243722501        3.5585341282        4.5168020723
 H        -11.9481989207        2.2609853008        2.8133731514
 H        -10.6955483897        0.9331829177        1.1399001164
 H         -4.4862330159       -1.3176891509       -1.6912320766
 H         -2.0146745027       -1.3046542365       -1.7180116208
 H         -1.0307220523        2.7575676563       -0.0160325107
 H          0.7649661024        4.4343864287        0.0248976286
 H          2.3585325802        5.2749853317        1.4847069250
 H          4.0714691608        7.0509799804        1.5784168844
 H          8.8494869964        7.7962326683       -0.7412623115
 H         10.2251664004        6.4957385089       -2.3441278599
 H          9.4416860023        4.3497022965       -3.2197386333
 H          7.2562024254        3.4205156562       -2.5304548805
 H          4.7089160023        3.0402520532       -1.3133576406
 H          3.7536870558        1.3669406374        0.0220185200
 H          3.7591266126       -1.3710310590       -0.0891529267
 H          2.4000575810       -5.2876316107       -1.5383611017
 H          4.1227628711       -7.0564821161       -1.6016276489
 H          8.8586606656       -7.7835861543        0.8161951480
 H         10.1958558960       -6.4754683169        2.4436933592
 H          9.3919306478       -4.3257678581        3.2921558193
 H          7.2212626809       -3.4017571929        2.5499264531
 H          4.6999852793       -3.0329232327        1.2848623978
 H          0.7835355605       -4.4503483851       -0.0720446134
 H         -1.0196639042       -2.7799650277       -0.0245479500
 H         -1.9946587183        1.2784210135        1.6948586689
 H         -4.4673294998        1.2924016583        1.6960752354
 H         -7.0391104229       -2.2467952381       -2.8218662650
 H         -8.2943720395       -3.5666572287       -4.4986988379
