130
 energy: -200.005231420522 gnorm: 0.000069206699 xtb: 6.7.1 (edcfbbe)
C            5.48359283949934        1.57971304607823        0.90587824493938
C            5.69287819185449        0.69068877794532       -0.13550059740124
C            4.80475425428153       -0.34621180130308       -0.35355950719127
C            3.69208733850718       -0.50947466979698        0.46797916113674
C            2.74897514649620       -1.62486187602647        0.25884170195252
C            1.38821936027179       -1.36211041104200        0.17987269564722
C            0.46062327825067       -2.37552706243134       -0.03317769067539
C           -0.96951559877951       -2.02476324085213       -0.05599616288601
C           -1.90475516137752       -2.71223175165224        0.71599754171560
C           -3.22525900537197       -2.31117862695053        0.74996304048653
C           -3.64167246726030       -1.19791846048263        0.02300677725699
C           -5.00121874118014       -0.69010560326592        0.14993190752604
N           -6.10582288673809       -1.38077647371628        0.04163415699192
C           -7.12003780718046       -0.48471311814009        0.18915031443879
C           -8.51898565882569       -0.72675162423036        0.13640735558925
C           -9.02546877554106       -2.00710145464766       -0.12133637519927
C          -10.38037331374729       -2.21629478460195       -0.19451677561078
C          -11.24872065653108       -1.14167670181346       -0.01269621691201
C          -10.76271454242250        0.12037906485930        0.24718674021468
C           -9.38650817309627        0.37415344671159        0.33775944106018
C           -8.84683692485136        1.69139555825376        0.63737948679780
C           -9.67683938843033        2.78621332153118        0.91453290913131
C           -9.16785693712214        4.02679577335437        1.22629801998582
C           -7.79202080479967        4.22609866569271        1.28606200594205
C           -6.94319685918063        3.18057720864083        1.01525080090664
C           -7.44313373138637        1.91343313286719        0.68127893835356
C           -6.60459366651477        0.79853599620970        0.40857787954097
N           -5.24297266233528        0.65288509639700        0.38153610830555
C           -4.19518705685541        1.57025239659769        0.57140437890788
C           -3.30582659878811        1.36533511136297        1.63404150339168
C           -2.15954730738064        2.10535802262224        1.73396247472542
C           -1.80384188485209        3.05150544487033        0.73877944858749
C           -0.50500461672322        3.63486727200073        0.72268654433914
C            0.09080972278031        4.09696183740238       -0.48982285562609
C            1.40309732844280        4.43294938969596       -0.56218042639096
C            2.24303510045071        4.38785878653682        0.59492266318915
C            3.62308665510060        4.60339647994580        0.58431487565606
N            4.32354149651918        4.90238736618676        1.69985562300731
C            5.57881126391865        5.14395821693913        1.30595312108246
C            6.70593797554968        5.50289230059855        2.06188234001983
C            7.90397299674572        5.64662955259004        1.40108266248358
C            8.01408960274602        5.43884809364313        0.02084482141197
C            6.91621224832872        5.09298251310693       -0.75442791227550
C            5.70143700961078        4.96456347771558       -0.10991210824847
N            4.44999553856039        4.61782589347891       -0.55037072109851
C            4.16910588533093        4.09189488450083       -1.82093240532185
C            4.50890534068475        4.81053774582855       -2.96364209716100
C            4.25576659847428        4.27405622072529       -4.21344084057671
C            3.66529983593737        3.02636828796708       -4.33223793942781
C            3.32737912778615        2.31121699180831       -3.19354228441760
C            3.57946360205422        2.83445418225689       -1.94021974185536
C            1.59837931023890        4.12022046582596        1.84624194254909
C            0.30313134038390        3.72767108152449        1.89896186709444
C           -2.76463705450026        3.30162224488281       -0.27614130860950
C           -3.93221048223884        2.58962179700593       -0.35406207151196
C           -2.72023129449289       -0.54262476015356       -0.79375382058053
C           -1.40372579311342       -0.94856536817382       -0.82749119500150
C            0.90746373581179       -3.69291502941945       -0.18769877897661
C           -0.05759145099100       -4.77721332735864       -0.46069128631938
C           -0.13765085545814       -5.89116938970952        0.36954047851894
C           -1.04524601497507       -6.89958277082021        0.10285045224727
C           -1.88123156482611       -6.81155769724265       -0.99804837936694
C           -1.80896665126325       -5.70593430459310       -1.82903455567380
C           -0.90552779789144       -4.69416950099084       -1.56141876883388
C            2.27550450827641       -3.97104218538413       -0.10233287809092
C            2.75050270408028       -5.36380007105593       -0.25719816037273
C            3.44049867171012       -5.99381061453273        0.77329426531378
C            3.88073803037925       -7.29647400739447        0.62762241201642
C            3.64207334381263       -7.98424489443164       -0.55051928936078
C            2.95844589496880       -7.36310863238220       -1.58242601495969
C            2.51239701561075       -6.06249897539978       -1.43628576770106
C            3.19788656256123       -2.94543944413444        0.12831082070116
C            4.63607214657534       -3.26057131912567        0.25311999863504
C            5.32429728079005       -2.92723401873501        1.41596487025918
C            6.66726687876614       -3.22840044526720        1.54687978452055
C            7.34230057221052       -3.86018011254979        0.51562051289527
C            6.66660225001892       -4.18977153672164       -0.64760987546637
C            5.32181851661720       -3.89570221965238       -0.77765075511559
C            3.47313822064782        0.40985526430355        1.49111606754491
C            4.36569956652311        1.44357052570264        1.71177323934879
H            6.18543060976057        2.38144585877036        1.08689883554211
H            6.55314615197541        0.80617353794919       -0.77916729433755
H            4.97001565497718       -1.03112557594426       -1.17170827109083
H            1.04007749056148       -0.34494902060042        0.29308581188763
H           -1.58761421533756       -3.55083886283126        1.31692927751319
H           -3.94120417458616       -2.83519590624771        1.36514335256181
H           -8.31802775869471       -2.80972146510208       -0.26411313744228
H          -10.77327083815465       -3.20203040437549       -0.39512893315084
H          -12.31575635967115       -1.29930249431102       -0.07491110310481
H          -11.47302575199720        0.92088621255826        0.37781354350847
H          -10.74788507056283        2.66676352808869        0.89577540435491
H           -9.84039378447656        4.84603376003341        1.43387531509991
H           -7.39277475760569        5.19537061623642        1.54554816291626
H           -5.87573279059906        3.32745184523432        1.07090912042055
H           -3.53035079509283        0.60058984615839        2.36375439631557
H           -1.47883008777792        1.90365639162477        2.54505938612013
H           -0.50433098031530        4.13073712344469       -1.38929914676893
H            1.81635683638927        4.77009956260594       -1.50006306595838
H            6.61741245826252        5.65011212151241        3.12650709091247
H            8.78898742302503        5.91963974473492        1.95726013706061
H            8.97862742020620        5.54899624405108       -0.45185262979452
H            7.01511936932187        4.92153196698071       -1.81553804497442
H            4.95112517013353        5.79119236871573       -2.86575518744053
H            4.51685308309634        4.83705198397852       -5.09731825385381
H            3.46871652812423        2.61260809344501       -5.30973085154168
H            2.87160607516443        1.33623251141093       -3.27951608047720
H            3.33177996843272        2.27929433545076       -1.04827510820230
H            2.19952654761193        4.20416170069437        2.73781523739660
H           -0.14538394158484        3.51580538323223        2.85768698185042
H           -2.57814747521740        4.07695323356051       -1.00243905826797
H           -4.64123192370960        2.78000933963187       -1.14807426460700
H           -3.03866760412734        0.28391848536566       -1.41090932224957
H           -0.70079824442434       -0.42830290822719       -1.46167546428521
H            0.50680744040280       -5.95912787592022        1.23407416484383
H           -1.09957571857795       -7.75826365206103        0.75656707428938
H           -2.58788021300170       -7.60150169195771       -1.20674358933539
H           -2.45893674392696       -5.63137946992782       -2.68905228366459
H           -0.84618526905789       -3.83506680264813       -2.21455787158271
H            3.62284994488407       -5.46098918271687        1.69568483720325
H            4.41258372931532       -7.77642498039952        1.43663320586958
H            3.98781912638817       -9.00147133937359       -0.66406941723300
H            2.77056931768672       -7.89425915360344       -2.50454179763022
H            1.98223268464605       -5.57828720136580       -2.24405352559705
H            4.79810265668792       -2.43804481082894        2.22347721330383
H            7.18898777439474       -2.96859459225918        2.45687307498853
H            8.39212287764467       -4.09385661790292        0.61784478837272
H            7.18895385830505       -4.67998148864102       -1.45661951242284
H            4.79900087454438       -4.14876772944094       -1.68884501496613
H            2.60985895321352        0.29798571476021        2.13173812164696
H            4.19146109126639        2.14934636468667        2.51068368337467
