130
 energy: -200.005360458335 gnorm: 0.000042215167 xtb: 6.7.1 (edcfbbe)
C            5.48733097263840        1.37314517282270        0.72114796191131
C            5.65967454270965        0.42547683592060       -0.27456875962968
C            4.74445806963971       -0.59993479169585       -0.42433506049070
C            3.64218132696769       -0.69337261099833        0.42162319857718
C            2.66463895932550       -1.78942547264932        0.27719182968159
C            1.31331403854032       -1.48666085394011        0.18451602298341
C            0.35244649196208       -2.47774625182104        0.01813594462426
C           -1.06289323775727       -2.07557299533241       -0.04252247803311
C           -2.03776090686955       -2.68719209559636        0.74377352721897
C           -3.34104609700190       -2.23126803427749        0.73534554048686
C           -3.69831173498123       -1.13680684407952       -0.04870743038501
C           -5.03433879657307       -0.56056991413019        0.03129587432789
N           -6.17029918979722       -1.19424479113644       -0.09341540704799
C           -7.13882728047438       -0.24161715295933        0.00172809816138
C           -8.54624729014577       -0.41018854932467       -0.09266654334097
C           -9.11274723191472       -1.66750583260773       -0.33885843850428
C          -10.47354603018021       -1.80486577684660       -0.45803027045935
C          -11.28747924809644       -0.68016755327668       -0.33696911146985
C          -10.74270757701141        0.55988061600022       -0.08790812333078
C           -9.35899432639645        0.74046590420068        0.05115728381776
C           -8.75913073855541        2.03260540976639        0.34509910121850
C           -9.53832607141770        3.17375746564675        0.57947907785993
C           -8.97440726813895        4.39134769178930        0.88710425153776
C           -7.59235658988060        4.51928891084761        0.98607462886800
C           -6.79210685079366        3.42600915102842        0.75956498889843
C           -7.34764038193418        2.18088184232934        0.43059334150383
C           -6.56172083767868        1.01772140535436        0.20559423198260
N           -5.20950737529107        0.79924590457485        0.22305593871336
C           -4.11957180344029        1.66482574456752        0.41410967847590
C           -3.25238234358199        1.42838454872435        1.48866338522509
C           -2.07853344403744        2.12141164350138        1.60114730781506
C           -1.67328737659084        3.05540139793774        0.61274787300575
C           -0.36215217427163        3.61006050762664        0.62944413276078
C            0.26479361617409        4.09490811956513       -0.55862173225210
C            1.58050151044982        4.42394479908621       -0.59591693484722
C            2.39836491052172        4.33913549614420        0.57450819366491
C            3.77854331636178        4.55162463115538        0.60430592723117
N            4.45205957931874        4.77417689198517        1.75469918987554
C            5.71663935925981        5.03965463419792        1.41001161182361
C            6.82405996010470        5.34614623486223        2.21643916273427
C            8.03641151785386        5.54076406339496        1.59616375147814
C            8.17946190530811        5.43320038672876        0.20748339547936
C            7.10206581697821        5.13827867329784       -0.61619704781499
C            5.87361693897964        4.95845713251827       -0.01106495306179
N            4.63397471524191        4.64134673412624       -0.50499093605558
C            4.38989252158402        4.21566120141346       -1.82043223029821
C            4.74406256589303        5.03011469167174       -2.89216544127895
C            4.53200909370151        4.59239252833577       -4.18734785518695
C            3.96908456109306        3.34828102701761       -4.42139909223291
C            3.61735365205532        2.53741086888361       -3.35315992125445
C            3.82807937815431        2.96193011102835       -2.05553495144013
C            1.72684956127924        4.03647875879028        1.80390502056722
C            0.42579710251307        3.66142226836010        1.82206100692220
C           -2.60601981629283        3.33102269400761       -0.42199142379108
C           -3.79819580397415        2.66304978603904       -0.51585460572682
C           -2.73786515171405       -0.55797406530602       -0.87804645588069
C           -1.43996711820380       -1.02043295808463       -0.87153676712927
C            0.75508805368178       -3.81576898411007       -0.06320064955788
C           -0.24390178041697       -4.88248040722017       -0.27674216533885
C           -0.35811294619040       -5.94373307460350        0.61620033560205
C           -1.29518010768530       -6.93843234860838        0.40581747216604
C           -2.12783189522032       -6.88851742058484       -0.69997719213690
C           -2.02215024773724       -5.83490960617910       -1.59275840903760
C           -1.08850584573102       -4.83716083122646       -1.38217252791861
C            2.11346347820055       -4.13378912029700        0.03823964194535
C            2.54257066510182       -5.54742913427725       -0.04346290850072
C            3.21419603636875       -6.14529817770172        1.01784222200422
C            3.61113636837447       -7.46755745515035        0.93966428749940
C            3.34804487079238       -8.20690357312330       -0.20149298868742
C            2.68246796687057       -7.61810002452561       -1.26374700416165
C            2.27927616294896       -6.29788803711537       -1.18474801990776
C            3.07007375410672       -3.12849624360525        0.21172673257285
C            4.49884322709102       -3.48168011067409        0.34128176156202
C            5.20977396742043       -3.10836871460850        1.47793799073734
C            6.54512237381141       -3.44124132712204        1.61051930903886
C            7.18995321411630       -4.14479089562780        0.60677187743305
C            6.49116446909207       -4.51585151497047       -0.53002523783829
C            5.15400919361144       -4.18971675380362       -0.66160330606487
C            3.46353146168811        0.28033071946749        1.40105593951906
C            4.38285211342934        1.30284407226141        1.55367824344907
H            6.20841834269706        2.16864834347384        0.84651389267745
H            6.51094373389603        0.48712365803736       -0.93730608457758
H            4.87985688926068       -1.33060082380068       -1.20774397641912
H            1.00012788862814       -0.45384962625704        0.24585897128587
H           -1.76560010261719       -3.50822092801567        1.38927509641498
H           -4.08768795065438       -2.69610946729970        1.36159882435885
H           -8.44578264365165       -2.51043221792001       -0.43674422499023
H          -10.91249888557315       -2.77274482186934       -0.64973378130943
H          -12.35837469871924       -0.78119568960310       -0.43795738721700
H          -11.41195437989241        1.40121139198028       -0.00535759146144
H          -10.61312104484368        3.10932937624534        0.53069816151019
H           -9.60864363963356        5.24808198212929        1.06113476522569
H           -7.15043058211122        5.47080368406242        1.24208701994631
H           -5.72077894078420        3.51797747259350        0.84819741648332
H           -3.51771997521280        0.67800906142463        2.21951883815568
H           -1.41877310965937        1.89398892005169        2.42250303792705
H           -0.31022045523179        4.15796691613259       -1.46946957119024
H            2.01302461864019        4.78309775238485       -1.51665696614693
H            6.70925822179638        5.41761357318666        3.28630744693681
H            8.90678587798682        5.77714238913655        2.19086920288844
H            9.15374384727444        5.58198885571083       -0.23349996874079
H            7.22643113332673        5.04415694917699       -1.68440604161649
H            5.16617332076149        6.00644141599613       -2.70401989657791
H            4.80433882921306        5.22941617543283       -5.01578926397861
H            3.80505582521766        3.01134247893472       -5.43379441806015
H            3.18348854123707        1.56444641760741       -3.52884080390605
H            3.56856637025970        2.33240183778721       -1.21773144505705
H            2.31106572660606        4.08705022062274        2.70914954474434
H           -0.04141087205478        3.43089550536531        2.76727772441253
H           -2.37925113810602        4.09229034214539       -1.15152913120543
H           -4.48442564304508        2.87423215892194       -1.32446764034685
H           -3.01209796962302        0.25361822332147       -1.53530174082845
H           -0.70605080682094       -0.56123032213907       -1.51759925834170
H            0.28354750687054       -5.98059154153351        1.48469234486426
H           -1.37573608512325       -7.75582188333624        1.10793091267859
H           -2.85773386231185       -7.66767390467666       -0.86466856263711
H           -2.66976616813201       -5.79001068445437       -2.45659993296458
H           -1.00273759082934       -4.01931389422235       -2.08355546219708
H            3.41647822549782       -5.57155921093495        1.91108580337241
H            4.12878098977518       -7.92224033395776        1.77218742959438
H            3.66063651359176       -9.23922854100462       -0.26301531071116
H            2.47545833056715       -8.18974156325640       -2.15713128841458
H            1.76330956204605       -5.83871059049706       -2.01596510692919
H            4.70764647194678       -2.56222124281186        2.26394848619326
H            7.08478854441643       -3.14960056203175        2.50020153172937
H            8.23382738044601       -4.40319174629620        0.71031948806711
H            6.98954021092577       -5.06273394976726       -1.31759428129925
H            4.61362832552959       -4.47484668865535       -1.55283378226127
H            2.60992076630737        0.22098166017437        2.06121547659652
H            4.23930467381962        2.05146818470727        2.31901083862127
