130
 energy: -200.095656863012 gnorm: 0.000034226184 xtb: 6.7.1 (edcfbbe)
C            5.34904324715967        1.67074508551802        1.20233870325763
C            5.66824894791833        0.74649596056265        0.22092298631185
C            4.81767313501587       -0.31094923962077       -0.04464326517488
C            3.63298162609973       -0.46459045886749        0.67145629322048
C            2.71641280769521       -1.59089299369847        0.40912021410664
C            1.36216705635977       -1.33689320366489        0.23417028134158
C            0.45237914539345       -2.35711127395542       -0.01595366860990
C           -0.97786787681069       -2.01283875353009       -0.11230201378740
C           -1.93487934047148       -2.67852666649729        0.65068013632802
C           -3.25376770612712       -2.26957018802859        0.64262411691323
C           -3.64756018786374       -1.17505119076064       -0.12268691664071
C           -5.00479721819886       -0.64680871539463       -0.00876848078198
N           -6.11565584275585       -1.32275914153828       -0.13558837671120
C           -7.12120033597287       -0.42145187706828        0.05996864475265
C           -8.52459358344294       -0.64858989842888        0.00270254502476
C           -9.04541652202165       -1.91226610942307       -0.29906222779545
C          -10.40236497523388       -2.10601253526961       -0.37107630735240
C          -11.25994346220571       -1.03103122320354       -0.14320876273922
C          -10.76021632363157        0.21436770432322        0.15859926032996
C           -9.37949761835598        0.45209393280357        0.24768346378751
C           -8.82552345943017        1.75137194077239        0.58939746863320
C           -9.64416839260297        2.84826944984312        0.89698135126115
C           -9.12302629813649        4.07034354660800        1.25216204913914
C           -7.74472595678134        4.24861071961254        1.33062387980709
C           -6.90764993657203        3.20183630881487        1.03220328076925
C           -7.41972458484278        1.95485849518041        0.64570637389139
C           -6.59483097840662        0.84087891312609        0.32675310757292
N           -5.23014680163243        0.68511964741621        0.27145106709740
C           -4.16972962490214        1.59788411731175        0.44469110963117
C           -3.23612406353700        1.35178476290561        1.44544539434872
C           -2.06801296065935        2.08305715950031        1.49314477078102
C           -1.80642094040284        3.07524385161689        0.54846360594350
C           -0.47278805306432        3.68635843478399        0.48941093087916
C            0.11360872846845        3.96165855209862       -0.74610076814080
C            1.42610218810554        4.37696939392746       -0.83529249108191
C            2.20038049771539        4.51123296082045        0.31611009012943
C            3.61556242007503        4.83877977713978        0.28219492512210
N            4.20984740204338        5.51224899795792        1.23353801316203
C            5.52080777616786        5.62151837280781        0.86187793019048
C            6.59314274052631        6.22859152262443        1.50840501427460
C            7.82890690368510        6.15987270040417        0.90088947811671
C            8.01099312528328        5.49827856139028       -0.31621168563819
C            6.96034232882313        4.89277916089750       -0.97640855539546
C            5.71085600465357        4.97401764921575       -0.38179400837942
N            4.47426883662088        4.48290319810305       -0.73760096082754
C            4.22022237181098        3.69337854408490       -1.87546459998565
C            4.61579854107478        4.15005620234511       -3.12823407737963
C            4.39180484263180        3.36703465414993       -4.24718733264326
C            3.77317527896266        2.13434116189807       -4.12268164801112
C            3.37573305888750        1.68369146163649       -2.87392995555294
C            3.59872013250596        2.45539607401730       -1.74893728152820
C            1.59182938224468        4.32395573458833        1.55819736556670
C            0.27784275664051        3.91708074449682        1.64323747252521
C           -2.79582476404397        3.37823635241031       -0.38783439642369
C           -3.96454925977810        2.64501987148172       -0.44837190128111
C           -2.70584101810957       -0.54893341202877       -0.93691830664018
C           -1.38915118253546       -0.96021150780205       -0.92651172011548
C            0.91211720378319       -3.67486515672544       -0.11576199628698
C           -0.03333490086000       -4.76911729785307       -0.41621203180896
C           -0.14737780981803       -5.86863862863344        0.42915328970444
C           -1.03691166515629       -6.88648771931224        0.13873404821230
C           -1.82292957573912       -6.82133699927579       -0.99981769464207
C           -1.71768469216471       -5.72963897316029       -1.84553328046427
C           -0.83084551782908       -4.70942683967598       -1.55538439055451
C            2.27384923691894       -3.94429963013990        0.05746661371181
C            2.76204406631076       -5.33722430134270       -0.04642199954044
C            3.39680268004112       -5.94814327417519        1.03011077651907
C            3.84994065589906       -7.25061093469811        0.92918665129168
C            3.67870780958709       -7.95801690197544       -0.24904982351973
C            3.04876889633400       -7.35677461632320       -1.32591945010233
C            2.59081598276700       -6.05607416133573       -1.22508825290259
C            3.17679768064836       -2.91117918838319        0.32954982443241
C            4.60442287381242       -3.22119412082432        0.55325399399717
C            5.21505600719557       -2.87202312876251        1.75413227011772
C            6.54644067644298       -3.17097076082392        1.97697537259402
C            7.28742246333182       -3.81639918534550        1.00094840569871
C            6.68964536791838       -4.16101155815116       -0.19996374739319
C            5.35657922406549       -3.86868361771092       -0.42206043660722
C            3.31124874250889        0.48205094973126        1.64185013399007
C            4.16395279829922        1.53885966249202        1.90690754297102
H            6.01650765769072        2.49404474080229        1.41421124649271
H            6.58501853464121        0.85073240847413       -0.34125058071543
H            5.06956333125199       -1.01817865005294       -0.82023123337336
H            1.00356335587464       -0.31955474961843        0.30096134983086
H           -1.63697714894076       -3.50345106166074        1.27996983693409
H           -3.98675943837250       -2.77380244358900        1.25469756086890
H           -8.34715976471528       -2.71661407419053       -0.47479585210040
H          -10.80613390089734       -3.08021669978589       -0.60525728510559
H          -12.32897523878622       -1.17705251098815       -0.20361100113900
H          -11.46170704266836        1.01641420310918        0.32482154904468
H          -10.71653133180685        2.74287011668787        0.86486920804616
H           -9.78649964444377        4.89137522531317        1.48160538850243
H           -7.33553366070432        5.20301072132801        1.62784788941865
H           -5.83945933288722        3.33343466990562        1.10769937945569
H           -3.41440541793210        0.55649422526903        2.15402658247995
H           -1.32673989210413        1.84155159066633        2.23884988361184
H           -0.45261217948283        3.81321645749352       -1.65311274503607
H            1.84917807834157        4.59035757163263       -1.80510104461468
H            6.45040004486506        6.72651550614823        2.45471863182509
H            8.68208934059995        6.62080613703221        1.37695668952654
H            8.99972499459541        5.45888192087324       -0.74920146521492
H            7.10861333785987        4.37154442539556       -1.91035339797661
H            5.08353345917586        5.11938743960710       -3.22063161398608
H            4.69936452512215        3.72559816875103       -5.21824000106604
H            3.60020325644161        1.52620967749319       -4.99770923045663
H            2.89613513084617        0.72240226501192       -2.77121712196286
H            3.29654249286348        2.10871217211930       -0.77344964842649
H            2.18076828991755        4.48728982446166        2.44730341022472
H           -0.17294304537475        3.77521604708646        2.61403031159401
H           -2.64169483055976        4.18273682628197       -1.09070514096624
H           -4.70652315159318        2.85489530854839       -1.20567860580404
H           -3.00596346060213        0.26687740789357       -1.57794641751379
H           -0.66768142619760       -0.45765756805057       -1.55447242384397
H            0.45604159004357       -5.91829738599013        1.32406747367803
H           -1.11725743297023       -7.73398875846052        0.80429814439150
H           -2.51643613193584       -7.61802719738707       -1.22638075241086
H           -2.32948754237521       -5.67226018112823       -2.73440133836649
H           -0.74630585521349       -3.86161852582430       -2.22032565807203
H            3.52593260580225       -5.40097099724246        1.95309781850352
H            4.33871523821906       -7.71517869763063        1.77361730457063
H            4.03472597843378       -8.97501584230800       -0.32757681947952
H            2.91259191775411       -7.90340933396303       -2.24809113684358
H            2.10357757912884       -5.58717849476735       -2.06813554922616
H            4.63757686261026       -2.37246263522748        2.51919166115418
H            7.00743016483568       -2.89904065267325        2.91582086539568
H            8.32785797757376       -4.04936412515544        1.17529969876200
H            7.26361602875896       -4.66161806718596       -0.96656952683611
H            4.89485463728804       -4.13433015986099       -1.36219298806241
H            2.39590756252483        0.37485453906770        2.20644704758904
H            3.90594908135496        2.26270106786875        2.66620144443879
