  99
       -160.57729962
 C          0.2165906887        5.2673684883        0.4206371089
 C         -0.9465203849        4.6046564620        0.7829367840
 C         -1.0112126516        3.2267372351        0.7060671664
 C          0.0926345994        2.5030181840        0.2592943331
 C          0.0288245929        1.0473624738        0.1802916976
 N         -1.1227976798        0.4584590351        0.4750579337
 C         -1.1186055077       -0.8664520850        0.4088716895
 N         -2.2838434890       -1.5019805558        0.7426121715
 C         -2.3402439561       -2.6156533417        1.5810623675
 C         -1.3629761988       -3.5521495290        1.8645644583
 C         -1.6762854287       -4.5536985608        2.7676511899
 C         -2.9267214141       -4.6182087885        3.3742695700
 C         -3.9004243713       -3.6772001900        3.0983121571
 C         -3.6084854517       -2.6649377759        2.1943823120
 C         -4.3682506862       -1.5503897144        1.6880653594
 C         -5.6647974241       -1.1153469388        1.9640679609
 C         -6.1491474624       -0.0041084548        1.3133367420
 C         -5.3707517824        0.6088791487        0.3316196776
 C         -5.6566806282        1.6909798148       -0.5649574053
 C         -6.7568627104        2.5247574705       -0.7242695043
 C         -6.7404025318        3.4532566969       -1.7444418884
 C         -5.6545612319        3.5391473069       -2.6132638171
 C         -4.5508756539        2.7197192952       -2.4745858883
 C         -4.5441880440        1.8082328049       -1.4278064445
 N         -3.5906908796        0.8691936965       -1.0772482437
 C         -2.4827338241        0.5388706864       -1.8719068089
 C         -1.6039432224        1.5264286768       -2.3087932615
 C         -0.4992641154        1.1820867543       -3.0648097828
 C         -0.2647810813       -0.1411910488       -3.4024129880
 C         -1.1532763068       -1.1211847183       -2.9943808741
 C         -2.2608991652       -0.7865888187       -2.2365365320
 C         -4.0731334562        0.1455344474       -0.0018890001
 C         -3.5348529900       -0.8805348558        0.7691542789
 N         -0.0756261489       -1.6154847550        0.0755402473
 C          1.0129001364       -0.9259048276       -0.2401795146
 N          2.0985917428       -1.6136571844       -0.7058213383
 C          1.9999505062       -2.6865232997       -1.5962295130
 C          0.9706345406       -3.5930327532       -1.7703838472
 C          1.1209843469       -4.5546142542       -2.7560521420
 C          2.2634153647       -4.6102279882       -3.5472867875
 C          3.2914360047       -3.7023399546       -3.3755312130
 C          3.1632292658       -2.7325037627       -2.3911432962
 C          4.0255384564       -1.6663233720       -1.9462364768
 C          5.2787154588       -1.2427076546       -2.3894258938
 C          5.8869912211       -0.1807193770       -1.7594684245
 C          5.2836312938        0.3884344333       -0.6382744716
 C          5.7263725900        1.4106553583        0.2652243280
 C          6.8551718775        2.2201305171        0.2998032890
 C          7.0123040072        3.0903914534        1.3586787937
 C          6.0725421522        3.1403639752        2.3861010661
 C          4.9437743890        2.3435311623        2.3736920444
 C          4.7590122870        1.4929051116        1.2925924739
 N          3.7424622522        0.5908038998        1.0374277663
 C          2.7369497876        0.2292904398        1.9455715592
 C          1.9575023637        1.1970174342        2.5729992107
 C          0.9326530297        0.8154886169        3.4183739588
 C          0.6820510664       -0.5259380831        3.6585367957
 C          1.4812025906       -1.4889929924        3.0665865700
 C          2.5092651530       -1.1173567953        2.2199609709
 C          4.0382685646       -0.0695938847       -0.1400323334
 C          3.3594861624       -1.0329493236       -0.8786013876
 N          1.1220806481        0.3963749121       -0.1903066270
 C          1.2573555394        3.1729391531       -0.1110477070
 C          1.3166384112        4.5505350809       -0.0260707346
 H          0.2652264201        6.3446873271        0.4846323405
 H         -1.8030910776        5.1655005786        1.1273340961
 H         -1.9046141828        2.6900731182        0.9858201300
 H         -0.3953141375       -3.4975344260        1.3932134599
 H         -0.9347569827       -5.3030339051        3.0024555552
 H         -3.1362047279       -5.4163261217        4.0709084673
 H         -4.8686643229       -3.7243942536        3.5730863657
 H         -6.2677368177       -1.6452085354        2.6846881877
 H         -7.1351943810        0.3778666858        1.5279920949
 H         -7.6063611002        2.4400054192       -0.0635866234
 H         -7.5825503013        4.1143551112       -1.8842008157
 H         -5.6775047189        4.2592854865       -3.4178018624
 H         -3.7303065977        2.7819613186       -3.1723346892
 H         -1.7606564028        2.5515237960       -2.0095854933
 H          0.1927348525        1.9510062214       -3.3751424408
 H          0.6092058336       -0.4095123768       -3.9770998169
 H         -0.9787124059       -2.1528042777       -3.2616429275
 H         -2.9560909772       -1.5509148301       -1.9204727606
 H          0.0858746360       -3.5471757391       -1.1573205674
 H          0.3348703030       -5.2794444002       -2.9085696088
 H          2.3464613594       -5.3757795200       -4.3043738970
 H          4.1776394575       -3.7443378358       -3.9902514155
 H          5.7518783220       -1.7409839381       -3.2209538087
 H          6.8398352757        0.1931256659       -2.1009692678
 H          7.5922919171        2.1626498917       -0.4867097709
 H          7.8788609421        3.7329681674        1.4030808209
 H          6.2318243968        3.8143423643        3.2148047202
 H          4.2397433753        2.3773697997        3.1904342971
 H          2.1196473353        2.2409860997        2.3535825773
 H          0.3143808562        1.5724516148        3.8780016798
 H         -0.1325450068       -0.8204580025        4.3030838232
 H          1.3007487285       -2.5355392028        3.2624377262
 H          3.1369867732       -1.8687999346        1.7632810386
 H          2.0993492517        2.5962267039       -0.4613108701
 H          2.2217323465        5.0686628020       -0.3077542691
