  45
  -73.9622682934000       0.171794675832955      !
 C          3.6872370287        2.7526108074       -1.1828561207
 C          4.1705820271        1.5746243302       -1.7397775290
 C          4.0293723403        0.3791714857       -1.0608893182
 C          3.4125333777        0.3748283943        0.1800759518
 C          2.9294947683        1.5443310130        0.7472535266
 C          3.0735971998        2.7367070672        0.0623715144
 S          3.0810487795       -1.1872293008        0.9844469328
 O          4.1225519770       -2.1315841346        0.6778309723
 O          2.7539033194       -0.9382190556        2.3649969430
 C          1.6001648184       -1.6446672256        0.1030564159
 C          1.6227057903       -2.6311170171       -0.9010638226
 C          0.4658039419       -2.8752536561       -1.6181569568
 C         -0.6859085641       -2.1429662626       -1.3951160248
 C         -0.6841291642       -1.1158606538       -0.4083250160
 C          0.4723281457       -0.8921085790        0.3362611447
 N         -1.7956027977       -0.3240260561       -0.2045032791
 C         -1.7589602670        1.0523879929       -0.0602659992
 C         -0.6857207992        1.9159522383       -0.1839009867
 C         -0.9261944129        3.2821526567       -0.0147078510
 C         -2.2091024852        3.7502322987        0.2550253301
 C         -3.2989361425        2.8935997368        0.3395444592
 C         -3.0873835282        1.5253542275        0.1639147850
 C         -3.9401086897        0.3851448346        0.1360290403
 C         -5.3134934110        0.1961264525        0.2905040334
 C         -5.8153886032       -1.0970107505        0.2432159843
 C         -4.9870750130       -2.2013135921        0.0523894900
 C         -3.6104278646       -2.0393290375       -0.1119983826
 C         -3.1037309527       -0.7520984620       -0.0919629943
 H          3.7952064895        3.6840601411       -1.7178528538
 H          4.6556699489        1.5934510278       -2.7040886169
 H          4.3983190610       -0.5511792947       -1.4626827643
 H          2.4705981346        1.4998273218        1.7225246793
 H          2.7100029412        3.6550312555        0.4989411283
 H          2.5336325015       -3.1805658642       -1.0658865602
 H          0.4652989848       -3.6348052674       -2.3858410731
 H         -1.5593989711       -2.2769375447       -2.0120985821
 H          0.4713040135       -0.1810465895        1.1476428099
 H          0.3062192735        1.5617162951       -0.4199768172
 H         -0.1067091913        3.9761330170       -0.1054584378
 H         -2.3625694880        4.8113952569        0.3857076875
 H         -4.2893221359        3.2748181555        0.5313163564
 H         -5.9674516094        1.0387984086        0.4494928028
 H         -6.8764025911       -1.2552451988        0.3690855056
 H         -5.4092632952       -3.1929681087        0.0412314760
 H         -2.9655515859       -2.8964305108       -0.2264766076
  45
  -73.9622217614000       0.163540406802704      !
 C          3.0071611526        0.3400733315       -3.5578195615
 C          2.2439932494       -0.7963273235       -3.3269650254
 C          2.2823987386       -1.4157147779       -2.0911633990
 C          3.0952419880       -0.8935349421       -1.0968899278
 C          3.8627475781        0.2390629323       -1.3164755179
 C          3.8204974498        0.8527329901       -2.5541285013
 S          3.0233855109       -1.5936730514        0.5474195368
 O          2.4152928936       -2.8970273003        0.4677838339
 O          4.3005503755       -1.4643502129        1.1980864404
 C          1.8745996104       -0.4518191392        1.2971834694
 C          2.2936995573        0.4760571684        2.2684921429
 C          1.3757733104        1.3915331763        2.7518761859
 C          0.0813411184        1.4338267466        2.2690053967
 C         -0.3189114419        0.5203484394        1.2520427999
 C          0.5974876262       -0.4227617594        0.7886652349
 N         -1.5824434040        0.5774922713        0.7010324517
 C         -2.7755981126        0.6973369956        1.3857323597
 C         -3.0027025340        0.7510018095        2.7493463124
 C         -4.3246272505        0.8452096949        3.1875394548
 C         -5.3767112870        0.8706924496        2.2733791874
 C         -5.1609161384        0.7911279783        0.9048751056
 C         -3.8493065537        0.6882663109        0.4401436987
 C         -3.2623160756        0.5518683986       -0.8491735603
 C         -3.7710163575        0.4824509023       -2.1474950945
 C         -2.8775385405        0.3991305922       -3.2073987854
 C         -1.4997076225        0.3988733432       -3.0088986114
 C         -0.9649306714        0.4541488434       -1.7184310162
 C         -1.8483209722        0.4955051592       -0.6554207263
 H          2.9728125009        0.8246318124       -4.5218683666
 H          1.6205066851       -1.1996136412       -4.1110769676
 H          1.7125224194       -2.3075705828       -1.8827635472
 H          4.4866344383        0.6089920838       -0.5181860516
 H          4.4167656458        1.7332690343       -2.7407489535
 H          3.3104778553        0.4335133519        2.6194418515
 H          1.6802918094        2.1051853428        3.5030170401
 H         -0.6065998207        2.2003668584        2.5864800521
 H          0.2916385110       -1.1785313383        0.0819996785
 H         -2.1910208588        0.6970776014        3.4577242472
 H         -4.5313053898        0.8874994448        4.2445233527
 H         -6.3886031923        0.9427746979        2.6441944064
 H         -5.9874238931        0.8020211133        0.2121073137
 H         -4.8353009567        0.4982701373       -2.3204728521
 H         -3.2613991621        0.3493012236       -4.2158514665
 H         -0.8316741035        0.3657702758       -3.8538720158
 H          0.1041983215        0.4805878422       -1.5726240813
  45
  -73.9620716823000       0.139525470215081      !
 C          4.1342385277        2.5160585289       -1.4348595307
 C          4.6315052125        1.2652708157       -1.7785205472
 C          4.3310042247        0.1634896544       -1.0003658977
 C          3.5432940986        0.3273181428        0.1283058968
 C          3.0428457480        1.5710574348        0.4825883892
 C          3.3447046881        2.6678605925       -0.3020778533
 S          3.0266622645       -1.1134648793        1.0496279596
 O          4.0060627554       -2.1580946358        0.9084871252
 O          2.6279099077       -0.7063784660        2.3728565100
 C          1.5724094517       -1.5312716610        0.1121985210
 C          1.6328291316       -2.4710267225       -0.9359423338
 C          0.5000257590       -2.6943221441       -1.6942545919
 C         -0.6683339507       -1.9884022229       -1.4647943383
 C         -0.7068545738       -1.0138781186       -0.4271133176
 C          0.4285121321       -0.8022674954        0.3505202287
 N         -1.8498139581       -0.2754645896       -0.1952541389
 C         -1.8767413524        1.0906976390        0.0243556889
 C         -0.8411407080        2.0059357506       -0.0331065918
 C         -1.1454405415        3.3483255558        0.2067145545
 C         -2.4516441695        3.7439984793        0.4797996759
 C         -3.5030117954        2.8366921603        0.4998253484
 C         -3.2269966201        1.4914933085        0.2551730694
 C         -4.0275215203        0.3163442575        0.1581368614
 C         -5.3914821604        0.0572013878        0.2883078364
 C         -5.8327177977       -1.2535713101        0.1700344774
 C         -4.9525683993       -2.3070738376       -0.0677589903
 C         -3.5840454605       -2.0739244693       -0.2090212517
 C         -3.1379786849       -0.7670833096       -0.1186268456
 H          4.3669624063        3.3739433243       -2.0474473092
 H          5.2522203047        1.1535673864       -2.6547677067
 H          4.7081398180       -0.8194298146       -1.2337158282
 H          2.4490823076        1.6579798119        1.3791155254
 H          2.9687967943        3.6436447090       -0.0325285746
 H          2.5522943305       -3.0067102687       -1.0985905080
 H          0.5294158286       -3.4159223554       -2.4970202762
 H         -1.5246957933       -2.1032060293       -2.1090211061
 H          0.3999574268       -0.1325377705        1.1957474821
 H          0.1683508950        1.7066411062       -0.2709711384
 H         -0.3577788919        4.0830513638        0.1708190647
 H         -2.6545022183        4.7886190431        0.6650358869
 H         -4.5124395133        3.1626240810        0.6944307537
 H         -6.0851079935        0.8596537135        0.4834702124
 H         -6.8860370826       -1.4667131079        0.2782679633
 H         -5.3276950074       -3.3155718811       -0.1319857711
 H         -2.8980675070       -2.8930253842       -0.3579986551
  45
  -73.9620106477000       0.130798852742262      !
 C          3.2500764919       -1.3704518909       -3.5208625057
 C          2.2971361989       -2.1370625165       -2.8625485277
 C          2.2455381176       -2.1401125297       -1.4814611501
 C          3.1586315840       -1.3778218264       -0.7683652187
 C          4.1134637048       -0.6083512417       -1.4144999807
 C          4.1609450370       -0.6123455252       -2.7955769022
 S          2.9930978561       -1.2549084978        1.0065965672
 O          2.2715785877       -2.4040260701        1.4907402814
 O          4.2667113590       -0.9354413603        1.5950666508
 C          1.9296386411        0.1708847604        1.0814676273
 C          2.4602759101        1.4629593621        1.2666078103
 C          1.6043095213        2.5462883597        1.2138339066
 C          0.2563188866        2.3848810208        0.9452535687
 C         -0.2630026634        1.0772431484        0.7225883889
 C          0.5953371621       -0.0169750201        0.7994718967
 N         -1.5951714446        0.8859031349        0.4177433391
 C         -2.6748807729        1.4695239687        1.0523028149
 C         -2.6955244858        2.3357763449        2.1308575459
 C         -3.9384042154        2.7630534117        2.6008591702
 C         -5.1159736647        2.3158094066        2.0063182227
 C         -5.1061152372        1.4253283556        0.9414085774
 C         -3.8774116420        0.9777985985        0.4573954251
 C         -3.4881160336        0.0619890980       -0.5626036441
 C         -4.1858520514       -0.7302072608       -1.4743753480
 C         -3.4617019214       -1.4938228936       -2.3802632127
 C         -2.0699080512       -1.4717083975       -2.4116682519
 C         -1.3474222030       -0.6948909633       -1.5032412532
 C         -2.0608892771        0.0343337812       -0.5685691997
 H          3.2869642728       -1.3683889708       -4.5996794937
 H          1.5983818824       -2.7342321192       -3.4295057107
 H          1.5302857859       -2.7387630210       -0.9395455865
 H          4.8100611385       -0.0370894745       -0.8217681752
 H          4.9057444552       -0.0249701566       -3.3114103655
 H          3.5124672595        1.5665849025        1.4689246980
 H          1.9952057534        3.5423598057        1.3597342112
 H         -0.3921951053        3.2362948603        0.8188625616
 H          0.2125680811       -1.0226338337        0.7218474820
 H         -1.7854517554        2.6551269851        2.6138715421
 H         -3.9838431620        3.4378993726        3.4401461805
 H         -6.0623647649        2.6625892586        2.3944328582
 H         -6.0274174449        1.0801617800        0.4996496056
 H         -5.2641709120       -0.7444255308       -1.4752670466
 H         -3.9917542308       -2.1102672989       -3.0913815061
 H         -1.5394285388       -2.0530727412       -3.1481061734
 H         -0.2695144784       -0.6589632214       -1.5494368492
  45
  -73.9619243357000       0.119381679928290      !
 C          3.4169348761       -2.6235157299       -2.9882718988
 C          4.3393178664       -1.6854938594       -2.5431874078
 C          4.2459723585       -1.1772459724       -1.2614480949
 C          3.2330078881       -1.6259852184       -0.4284206044
 C          2.3065075157       -2.5624222974       -0.8613348398
 C          2.4044038452       -3.0642844697       -2.1450468690
 S          3.0204619664       -0.8681558896        1.1754700048
 O          2.2894814189       -1.7679702450        2.0309671038
 O          4.2813897713       -0.3460748653        1.6318157883
 C          1.9503846668        0.4739591630        0.7071718388
 C          2.4920414987        1.6983446286        0.2645348663
 C          1.6315458395        2.6827336173       -0.1808713463
 C          0.2645130883        2.4738181912       -0.2276270412
 C         -0.2709440159        1.2227417562        0.1967585863
 C          0.5958065596        0.2339595118        0.6570483398
 N         -1.6297659579        0.9882830029        0.1532759913
 C         -2.6200242039        1.8572000051        0.5725371273
 C         -2.5023315300        3.1071498639        1.1539014991
 C         -3.6752884754        3.7754141207        1.5082490869
 C         -4.9205164518        3.1893221363        1.2946868159
 C         -5.0474382833        1.9231531430        0.7399124753
 C         -3.8903053534        1.2318174884        0.3837299174
 C         -3.6359665914       -0.0618117341       -0.1576098418
 C         -4.4477479880       -1.1268912627       -0.5466372482
 C         -3.8472039286       -2.2559155805       -1.0868674722
 C         -2.4685856246       -2.3393336323       -1.2656185904
 C         -1.6332709346       -1.2906565341       -0.8761057198
 C         -2.2199380979       -0.1794087749       -0.2966782393
 H          3.4897986649       -3.0155230222       -3.9915640500
 H          5.1301773995       -1.3528425477       -3.1987142492
 H          4.9521370113       -0.4568701020       -0.8807565531
 H          1.5442891243       -2.8969642435       -0.1747239253
 H          1.6955762553       -3.8013953130       -2.4923520225
 H          3.5578213765        1.8410469363        0.3103223430
 H          2.0309141291        3.6261267269       -0.5223618274
 H         -0.3967976439        3.2088853706       -0.6563512381
 H          0.2145288516       -0.6905293396        1.0621616119
 H         -1.5377155876        3.5465081347        1.3538889432
 H         -3.6122569931        4.7511295375        1.9621257281
 H         -5.8098974464        3.7310697711        1.5810771178
 H         -6.0186908164        1.4784641292        0.5915865069
 H         -5.5186070961       -1.0698250026       -0.4322576524
 H         -4.4660809864       -3.0867609580       -1.3922876146
 H         -2.0382003847       -3.2193336950       -1.7152739546
 H         -0.5684517039       -1.3463779378       -1.0427738348
  45
  -73.9618932564000       0.115519321283544      !
 C          4.5142377920        2.2800833370       -1.6330675881
 C          4.9648578813        0.9782284536       -1.8082456813
 C          4.5335871376       -0.0233263915       -0.9588747115
 C          3.6611174276        0.2924397824        0.0706597646
 C          3.2042178125        1.5882834952        0.2551027999
 C          3.6379754864        2.5843966271       -0.5985830464
 S          2.9932674699       -1.0167962384        1.0871359084
 O          3.9007874184       -2.1334926910        1.0860687448
 O          2.5684903430       -0.4647191274        2.3483908954
 C          1.5512002323       -1.4165967422        0.1245643933
 C          1.6388695613       -2.3386559094       -0.9389959155
 C          0.5201231786       -2.5621894792       -1.7177264150
 C         -0.6614926667       -1.8796936953       -1.4889296401
 C         -0.7330078646       -0.9319204341       -0.4261092716
 C          0.3928585839       -0.7128941835        0.3651244733
 N         -1.9014312230       -0.2417590623       -0.1781270695
 C         -1.9818068110        1.1094588416        0.1095191620
 C         -0.9815974557        2.0654881783        0.1134893809
 C         -1.3382883831        3.3802016959        0.4200033644
 C         -2.6616511412        3.7128230408        0.6977922588
 C         -3.6779798492        2.7680870389        0.6533419569
 C         -3.3490626743        1.4496479300        0.3400576688
 C         -4.1054124319        0.2541503022        0.1682485221
 C         -5.4619039983       -0.0556333289        0.2563193468
 C         -5.8566919742       -1.3719536722        0.0617822335
 C         -4.9359902475       -2.3817601027       -0.2086062994
 C         -3.5736607737       -2.0967556285       -0.3078826785
 C         -3.1735642392       -0.7819932594       -0.1464557809
 H          4.8506645857        3.0598460489       -2.2995187956
 H          5.6532081487        0.7481917585       -2.6077266741
 H          4.8731883879       -1.0417819983       -1.0597968398
 H          2.5393024503        1.7932057516        1.0797639441
 H          3.2984286700        3.6001265792       -0.4602618438
 H          2.5660455413       -2.8616621862       -1.0977255104
 H          0.5707984095       -3.2658822424       -2.5353224364
 H         -1.5054165678       -1.9906559342       -2.1499278197
 H          0.3462596951       -0.0642531780        1.2261304200
 H          0.0400204270        1.8167230068       -0.1296821931
 H         -0.5784930205        4.1447065625        0.4348188437
 H         -2.9048728196        4.7373503339        0.9382544896
 H         -4.7010970539        3.0448112401        0.8526840244
 H         -6.1859650633        0.7128346012        0.4762774190
 H         -6.9042591437       -1.6247490021        0.1340847240
 H         -5.2748033462       -3.3976811789       -0.3318760591
 H         -2.8585428036       -2.8859384882       -0.4792070048
  45
  -73.9611975241000       5.532458965369181E-002 !
 C          4.8334736043        2.2809724486        0.6565785140
 C          5.2592498278        1.2750120523       -0.2005629239
 C          4.6512782087        0.0341377018       -0.1660360039
 C          3.6254150747       -0.1914847844        0.7375617113
 C          3.1913361403        0.8052779272        1.5964079713
 C          3.8025329978        2.0442254140        1.5566021850
 S          2.7493373867       -1.7449856501        0.6860258010
 O          3.6151854251       -2.7669497151        0.1568781432
 O          2.1071506887       -1.9728633232        1.9566630762
 C          1.4781592237       -1.3980517381       -0.5162732512
 C          1.7282705821       -1.5813988731       -1.8912965135
 C          0.7707851206       -1.1692290805       -2.7998681935
 C         -0.4200437618       -0.6054744956       -2.3828119365
 C         -0.6733248676       -0.4421056112       -0.9883185298
 C          0.3046745607       -0.8360701240       -0.0741791074
 N         -1.8621028047        0.0969099666       -0.5463320324
 C         -2.5046861338        1.1979132655       -1.0836700379
 C         -2.1095595159        2.0302848795       -2.1157231046
 C         -2.9432831896        3.0979095851       -2.4514651158
 C         -4.1283150618        3.3227369729       -1.7528330950
 C         -4.5170152134        2.5146404956       -0.6946778946
 C         -3.6968802288        1.4453886946       -0.3341076272
 C         -3.7488781472        0.4615533378        0.6936282870
 C         -4.6425816985        0.1890487755        1.7287790679
 C         -4.3960145725       -0.9045518771        2.5485692067
 C         -3.2966988165       -1.7359717913        2.3509210037
 C         -2.3822350564       -1.4801290794        1.3271100568
 C         -2.5971235464       -0.3684852229        0.5310146415
 H          5.3093986080        3.2495628469        0.6274931804
 H          6.0669945474        1.4613719011       -0.8925285684
 H          4.9653768228       -0.7733563616       -0.8079681568
 H          2.3984376597        0.5837493957        2.2933231620
 H          3.4796885800        2.8273146854        2.2263532214
 H          2.6461109984       -2.0547290326       -2.1940213924
 H          0.9424326818       -1.3130807377       -3.8564039595
 H         -1.2017963452       -0.3740828182       -3.0876061081
 H          0.1737277849       -0.6631057293        0.9827755375
 H         -1.1749067967        1.8820674382       -2.6333719900
 H         -2.6596142413        3.7597524448       -3.2535632462
 H         -4.7523764143        4.1573067202       -2.0367738878
 H         -5.4307520240        2.7086912597       -0.1557232651
 H         -5.5071209798        0.8147825579        1.8846188674
 H         -5.0823481963       -1.1255109519        3.3527118884
 H         -3.1476764359       -2.5912912303        2.9891630796
 H         -1.5478144746       -2.1436759360        1.1639341603
  45
  -73.9611707702000       5.378026777574880E-002 !
 C          5.0178119157        2.1915472308        0.5055533962
 C          5.3762492043        1.1339273791       -0.3198515713
 C          4.7081539478       -0.0725715043       -0.2265996293
 C          3.6890721001       -0.2116780938        0.7021463211
 C          3.3220270550        0.8372158206        1.5298214328
 C          3.9944602420        2.0409214845        1.4327345196
 S          2.7320105881       -1.7173237189        0.7182631478
 O          3.5376080366       -2.8008864130        0.2169956688
 O          2.0943996592       -1.8689763845        2.0024198560
 C          1.4673827876       -1.3457819558       -0.4836570738
 C          1.7369138789       -1.4894969722       -1.8601711509
 C          0.7938082193       -1.0494215956       -2.7703509608
 C         -0.4041532018       -0.5000817591       -2.3541472755
 C         -0.6809968896       -0.3861544058       -0.9593335482
 C          0.2844580604       -0.8033748519       -0.0422356474
 N         -1.8845266711        0.1231406671       -0.5208132439
 C         -2.5282428912        1.2385395439       -1.0250120779
 C         -2.1198406726        2.1188184399       -2.0110747601
 C         -2.9592965030        3.1896903268       -2.3206236100
 C         -4.1633571166        3.3695662916       -1.6417109479
 C         -4.5669942571        2.5114303429       -0.6294949369
 C         -3.7420886513        1.4373308384       -0.2958355393
 C         -3.8079299897        0.4058002468        0.6833203078
 C         -4.7277241714        0.0695265738        1.6759889394
 C         -4.4901868462       -1.0618549670        2.4459389428
 C         -3.3732761894       -1.8672985539        2.2409901611
 C         -2.4318557562       -1.5470014663        1.2605617064
 C         -2.6406619130       -0.4005063951        0.5140471919
 H          5.5408359208        3.1331916910        0.4311587893
 H          6.1786353434        1.2530288803       -1.0321563818
 H          4.9702718918       -0.9189105235       -0.8420817951
 H          2.5304046605        0.6829256174        2.2458559343
 H          3.7248237861        2.8639435326        2.0780165344
 H          2.6581541223       -1.9548348226       -2.1646926772
 H          0.9815723058       -1.1609229599       -3.8279759236
 H         -1.1745983937       -0.2450291837       -3.0632824856
 H          0.1374522583       -0.6643097189        1.0177383802
 H         -1.1715626701        2.0034709601       -2.5122552572
 H         -2.6656881691        3.8888381390       -3.0867415752
 H         -4.7913702041        4.2081056612       -1.9044515005
 H         -5.4960724003        2.6707896361       -0.1055219621
 H         -5.6059817096        0.6745549789        1.8365541164
 H         -5.1980369934       -1.3335355654        3.2152059053
 H         -3.2313783511       -2.7522835793        2.8392383898
 H         -1.5815752004       -2.1882691539        1.0903867615
  45
  -73.9605965927000       2.929201523564492E-002 !
 C          5.3299525759        2.0480230928        0.9236776698
 C          5.5662780611        1.1226592233       -0.0840556809
 C          4.7804580980       -0.0109405669       -0.1791857779
 C          3.7655082342       -0.2088076808        0.7421509537
 C          3.5164115610        0.7102366707        1.7472378648
 C          4.3066610491        1.8411498106        1.8388745406
 S          2.7263359057       -1.6541554587        0.5942121081
 O          3.5012666762       -2.7276760186        0.0262098021
 O          2.0616605421       -1.8780126553        1.8547818855
 C          1.4763959550       -1.1949994491       -0.5949617693
 C          1.6946784740       -1.4003875193       -1.9723296062
 C          0.6935356917       -1.0448833690       -2.8605135996
 C         -0.5059879118       -0.5243863069       -2.4203640987
 C         -0.7235040942       -0.3230585544       -1.0214727550
 C          0.3050971195       -0.6507256137       -0.1317251491
 N         -1.9275334159        0.1536740647       -0.5568413879
 C         -2.6987207897        1.1402819222       -1.1485358038
 C         -2.4384040688        1.9194026763       -2.2623741138
 C         -3.4000352715        2.8516876952       -2.6518682195
 C         -4.5792033803        3.0076354476       -1.9225520074
 C         -4.8306499870        2.2668732886       -0.7788503356
 C         -3.8808929201        1.3323098251       -0.3646494108
 C         -3.7898124432        0.4456476591        0.7431643198
 C         -4.6060947072        0.1916318043        1.8451672526
 C         -4.2251766835       -0.7985713645        2.7404969796
 C         -3.0694991602       -1.5511581607        2.5491195728
 C         -2.2318170406       -1.3116151604        1.4575459937
 C         -2.5729157982       -0.2889790724        0.5892228276
 H          5.9503713868        2.9281844611        1.0013322887
 H          6.3687963966        1.2841264245       -0.7881260456
 H          4.9527993589       -0.7608205599       -0.9347943890
 H          2.7265373978        0.5071845038        2.4531448279
 H          4.1322122458        2.5594680473        2.6259578335
 H          2.6142859099       -1.8578699378       -2.2927106578
 H          0.8366849758       -1.2129444764       -3.9178423748
 H         -1.3227468384       -0.3658536626       -3.1050294949
 H          0.2086308096       -0.4454547337        0.9228508641
 H         -1.5107654025        1.8372318172       -2.8064950157
 H         -3.2226195570        3.4642671267       -3.5208886052
 H         -5.3053676077        3.7362941518       -2.2517560041
 H         -5.7397326760        2.4071288078       -0.2156242097
 H         -5.5140755622        0.7544639492        1.9940885311
 H         -4.8494794701       -1.0039932486        3.5975950156
 H         -2.8159447013       -2.3345280434        3.2442106877
 H         -1.3605806742       -1.9279625874        1.3028360332
  45
  -73.9602840224000       2.104272053007882E-002 !
 C          4.8505142475        2.2596864321        1.2868289085
 C          5.2193902356        1.4909491128        0.1906328035
 C          4.5957337961        0.2797756205       -0.0456106803
 C          3.6107980543       -0.1533894773        0.8258698551
 C          3.2318993053        0.6064001111        1.9198772588
 C          3.8580065603        1.8175091876        2.1506241537
 S          2.7872654103       -1.7075338286        0.5098756530
 O          3.7144357123       -2.6155144969       -0.1137378504
 O          2.1258957550       -2.1235210752        1.7227679302
 C          1.5064192428       -1.3237442170       -0.6761010642
 C          1.6381466529       -1.7042984460       -2.0248201761
 C          0.5921163847       -1.4362649989       -2.8929874650
 C         -0.5688003390       -0.8344231049       -2.4543759835
 C         -0.6960938949       -0.4482889127       -1.0844020576
 C          0.3787515155       -0.6883043675       -0.2206955619
 N         -1.8598418125        0.1133873185       -0.6120791485
 C         -2.6591001989        1.0274813948       -1.2767516348
 C         -2.4717273553        1.6444893029       -2.5015584063
 C         -3.4497235384        2.5334695609       -2.9467894420
 C         -4.5734679203        2.8081839397       -2.1654085538
 C         -4.7495327891        2.2348428720       -0.9169317405
 C         -3.7807238580        1.3475205119       -0.4449004017
 C         -3.6207367391        0.6168590927        0.7631330350
 C         -4.3574016145        0.5328665804        1.9453844683
 C         -3.9259406949       -0.3374508151        2.9374021870
 C         -2.8000127822       -1.1377044600        2.7677811279
 C         -2.0417747305       -1.0678685352        1.5954380946
 C         -2.4286152706       -0.1602269516        0.6253248999
 H          5.3440872868        3.2016759513        1.4730868075
 H          5.9975512923        1.8365391530       -0.4732599344
 H          4.8714282083       -0.3505091887       -0.8762745649
 H          2.4757848707        0.2192021982        2.5847743764
 H          3.5806047486        2.4142043710        3.0067522868
 H          2.5320277135       -2.2173152877       -2.3344340832
 H          0.6690274229       -1.7395890761       -3.9267144920
 H         -1.4223859794       -0.7430166001       -3.1055018629
 H          0.3472049286       -0.3426710476        0.8004778069
 H         -1.5861994731        1.4724695752       -3.0927148407
 H         -3.3289588004        3.0203595240       -3.9008300197
 H         -5.3143373558        3.4991601586       -2.5400798253
 H         -5.6150013529        2.4667705244       -0.3165320312
 H         -5.2427834513        1.1336550487        2.0810932502
 H         -4.4887824968       -0.4111065666        3.8563338911
 H         -2.5084285636       -1.8294808991        3.5407809102
 H         -1.1984456164       -1.7269180034        1.4624672725
