  57
  -77.4489685027000       0.258963203854332      !
 C         -4.2360551546       -3.4191723032        0.9786572254
 C         -3.2510432188       -3.4719030581       -0.1989329816
 C         -4.0258191656       -3.6026602494       -1.5191516646
 C         -2.3771662665       -4.7185053892       -0.0344929091
 C         -2.4460583696       -2.1858865559       -0.2198310853
 C         -3.1253677765       -0.9651871815       -0.3632815612
 C         -2.4703302676        0.2540971329       -0.3707982568
 C         -1.0928690842        0.2566727957       -0.2199429004
 C         -0.3736481317       -0.9683376102       -0.1243980801
 C         -1.0565842533       -2.1757671846       -0.1117901569
 C          1.0151192202       -0.6237909331       -0.0823616251
 C          2.1828186168       -1.3695533388        0.0144209909
 C          3.4143864447       -0.7224419797        0.0795703139
 C          4.7242312890       -1.4822529235        0.1899765466
 C          4.5345204338       -3.0011728140        0.1554183118
 C          5.6351278885       -1.0900943964       -0.9829836487
 C          5.4014377981       -1.1147147094        1.5188650231
 C          3.4457923590        0.6811376624        0.0658211673
 C          2.2962330874        1.4497581880       -0.0424332601
 C          1.0809016727        0.7956479785       -0.1446078866
 N         -0.2007420665        1.3089288433       -0.2292635554
 C         -0.5160244579        2.6465692717       -0.3202842964
 C          0.1815078625        3.4827593811       -1.1900578409
 C         -0.1221120653        4.8198434823       -1.2981342247
 C         -1.1440589900        5.3770643960       -0.4848434710
 C         -1.8305182706        4.5959782544        0.3988319417
 C         -1.5521847006        3.2165142477        0.5329332364
 C         -2.1262529190        2.4848653900        1.5559895424
 N         -2.6412847867        1.8792630664        2.4018775204
 H         -4.9312945857       -2.5910903973        0.8795554612
 H         -4.8085694282       -4.3429355643        1.0263972720
 H         -3.6950434942       -3.2973041456        1.9141691798
 H         -3.3359486237       -3.6149185081       -2.3604769946
 H         -4.7184319363       -2.7778151890       -1.6579074278
 H         -4.5947451719       -4.5297474145       -1.5251783686
 H         -3.0104059255       -5.6031005459       -0.0169421243
 H         -1.6806503329       -4.8227449870       -0.8634066535
 H         -1.8215510540       -4.6863256264        0.8997000160
 H         -4.1972613698       -0.9612233808       -0.4728372714
 H         -3.0263152566        1.1692425317       -0.4985808409
 H         -0.4931480132       -3.0890478528       -0.0220451372
 H          2.1096271756       -2.4432143081        0.0459671948
 H          5.5055537066       -3.4876873076        0.2199530808
 H          4.0627670961       -3.3159008225       -0.7725983206
 H          3.9346482397       -3.3413346265        0.9961319009
 H          5.1506899941       -1.3228048041       -1.9289691393
 H          6.5700452680       -1.6434823026       -0.9284982591
 H          5.8678469867       -0.0293838844       -0.9706826122
 H          4.7531632465       -1.3711129310        2.3540415066
 H          5.6213560462       -0.0524007439        1.5724345325
 H          6.3351862959       -1.6626478774        1.6245898282
 H          4.3896461674        1.1947984359        0.1499136119
 H          2.3572206327        2.5271178087       -0.0274248087
 H          0.9217497648        3.0394624214       -1.8415327057
 H          0.3892330142        5.4398735530       -2.0160578944
 H         -1.3746081693        6.4275536937       -0.5753035995
 H         -2.5970493086        5.0189666438        1.0322226523
  57
  -77.4488736029000       0.234220622583339      !
 C         -2.9430049850       -4.1728369723        1.1283580607
 C         -3.2165832189       -3.4862981338       -0.2185386299
 C         -4.7316275707       -3.3364607016       -0.3756692669
 C         -2.7010096736       -4.3681295691       -1.3662615725
 C         -2.4827633310       -2.1578628787       -0.2462668683
 C         -3.1469952688       -0.9399286769       -0.4217893290
 C         -2.4747392762        0.2755139830       -0.4272780860
 C         -1.1039662247        0.2694936670       -0.2414659380
 C         -0.3949125211       -0.9588290829       -0.1137890264
 C         -1.0913321165       -2.1560822462       -0.1033394967
 C          0.9944969469       -0.6227716291       -0.0451884248
 C          2.1568360608       -1.3736411102        0.0786510522
 C          3.3902028119       -0.7329989501        0.1567113637
 C          4.6951022337       -1.4976869132        0.2872008190
 C          4.4978802853       -3.0160311136        0.2751951124
 C          5.6123685239       -1.1275920775       -0.8883041376
 C          5.3694765300       -1.1136184160        1.6128874084
 C          3.4304036360        0.6718334860        0.1317155040
 C          2.2882745018        1.4453154691       -0.0036080520
 C          1.0704131349        0.7970392537       -0.1218112801
 N         -0.2035964071        1.3164670857       -0.2411029912
 C         -0.5086929234        2.6555353994       -0.3574962971
 C          0.2130451880        3.4736613186       -1.2242560324
 C         -0.0764877271        4.8122330649       -1.3552575815
 C         -1.1082835923        5.3882215866       -0.5691791440
 C         -1.8198758922        4.6238430832        0.3096960100
 C         -1.5576466360        3.2434339883        0.4646011535
 C         -2.1673043703        2.5273486665        1.4787411280
 N         -2.7088217182        1.9351463520        2.3172300613
 H         -3.2769346035       -3.5373543962        1.9456367275
 H         -3.4815715618       -5.1166659739        1.1803455006
 H         -1.8848569448       -4.3770098606        1.2657974542
 H         -5.1977674685       -4.3188394343       -0.3350428920
 H         -4.9852383115       -2.8854411243       -1.3321063651
 H         -5.1491087683       -2.7332542882        0.4265563190
 H         -3.2264594097       -5.3206082421       -1.3676904948
 H         -2.8720845596       -3.8777736286       -2.3223199539
 H         -1.6373494824       -4.5668741478       -1.2706993090
 H         -4.2137067365       -0.9187377976       -0.5586335193
 H         -3.0200720748        1.1931028748       -0.5810411192
 H         -0.5451007856       -3.0789169892        0.0116175196
 H          2.0774193867       -2.4466250133        0.1194096487
 H          5.4660335365       -3.5062042710        0.3536431686
 H          4.0307963951       -3.3431629234       -0.6509325690
 H          3.8906489724       -3.3396549700        1.1172395893
 H          5.8431344099       -0.0663781708       -0.8956069050
 H          5.1334908708       -1.3796104949       -1.8322011754
 H          6.5475761275       -1.6785061039       -0.8174892580
 H          5.6008458672       -0.0529592278        1.6491238646
 H          6.2969921223       -1.6693503775        1.7328135702
 H          4.7146187045       -1.3485726917        2.4493546120
 H          4.3760002186        1.1801072676        0.2273668908
 H          2.3546549750        2.5224704670        0.0017074863
 H          0.9627068552        3.0159672514       -1.8546609204
 H          0.4550326931        5.4186640903       -2.0702373194
 H         -1.3272587820        6.4396627438       -0.6764388124
 H         -2.5957505014        5.0609008213        0.9219479482
  57
  -77.4488216561000       0.221693027713542      !
 C         -4.2453404432       -3.4472250042        0.9407390419
 C         -3.2467380057       -3.4799104295       -0.2259951727
 C         -4.0058431866       -3.5959347274       -1.5568790130
 C         -2.3698465213       -4.7253669353       -0.0690180129
 C         -2.4463090941       -2.1908073515       -0.2231217154
 C         -3.1279227696       -0.9706852780       -0.3627430203
 C         -2.4755196830        0.2500279212       -0.3645733700
 C         -1.0981581015        0.2554264619       -0.2111185844
 C         -0.3776291978       -0.9684040907       -0.1086969870
 C         -1.0579851391       -2.1773725080       -0.1029247311
 C          1.0107491211       -0.6221861694       -0.0655821566
 C          2.1785063924       -1.3660357337        0.0440358482
 C          3.4104498807       -0.7181168020        0.0970873087
 C          4.7210474411       -1.4780346116        0.1997876866
 C          4.5196405640       -2.9849558812        0.3826250959
 C          5.5159105315       -1.2489332286       -1.0948172980
 C          5.5271415452       -0.9611124067        1.4008052671
 C          3.4424952899        0.6842289870        0.0481375551
 C          2.2917576632        1.4513338430       -0.0608710157
 C          1.0754988200        0.7963624314       -0.1424860033
 N         -0.2072418177        1.3083352520       -0.2267320809
 C         -0.5205102664        2.6465373710       -0.3177954022
 C          0.1793984957        3.4817969236       -1.1865880619
 C         -0.1082625074        4.8233911365       -1.2812180885
 C         -1.1164380360        5.3861074554       -0.4545461210
 C         -1.8089103427        4.6047618794        0.4241561188
 C         -1.5490368955        3.2200985692        0.5426187680
 C         -2.1330083844        2.4863958501        1.5583825890
 N         -2.6578372207        1.8805456789        2.3980708171
 H         -3.7160816002       -3.3328763296        1.8839980181
 H         -4.9448705224       -2.6225510701        0.8429557312
 H         -4.8122203906       -4.3753630834        0.9708054848
 H         -3.3064034062       -3.5944734471       -2.3904089781
 H         -4.6999025604       -2.7718073291       -1.6926001205
 H         -4.5711870413       -4.5249141821       -1.5817859860
 H         -2.9995003402       -5.6126973890       -0.0724187469
 H         -1.6628585450       -4.8145385949       -0.8908015270
 H         -1.8257426520       -4.7049112741        0.8722454626
 H         -4.1994317894       -0.9687470294       -0.4762544685
 H         -3.0331045849        1.1641982699       -0.4922903649
 H         -0.4927765738       -3.0894819013       -0.0123034720
 H          2.1051932243       -2.4389729839        0.0949546673
 H          5.4888619191       -3.4699510620        0.4783802231
 H          4.0123640118       -3.4229628255       -0.4736797281
 H          3.9480031352       -3.1942379242        1.2839156431
 H          5.7092565789       -0.1918690240       -1.2557700083
 H          4.9594798916       -1.6277672133       -1.9496795667
 H          6.4697047719       -1.7694450329       -1.0445594660
 H          6.4356214228       -1.5480957798        1.5170702694
 H          4.9404747455       -1.0477246426        2.3128247664
 H          5.8134459354        0.0788439320        1.2756124134
 H          4.3873475957        1.1994763922        0.1043521828
 H          2.3540692299        2.5286406188       -0.0639718151
 H          0.9093601519        3.0352183764       -1.8474624973
 H          0.4056710242        5.4432817066       -1.9974875956
 H         -1.3323830309        6.4407549518       -0.5317896368
 H         -2.5665746090        5.0313105100        1.0658845763
  57
  -77.4487895370000       0.214284677781090      !
 C         -2.9106529839       -4.1758451416        1.0340404604
 C         -3.1741874032       -3.4870701549       -0.3139682889
 C         -4.6884543213       -3.3470665426       -0.4871000218
 C         -2.6400463366       -4.3622964005       -1.4582199698
 C         -2.4491204343       -2.1538785818       -0.3260903463
 C         -3.1212280786       -0.9374053201       -0.4952999862
 C         -2.4596408693        0.2821306297       -0.4740204086
 C         -1.0906493377        0.2846050923       -0.2682891668
 C         -0.3731148490       -0.9412932793       -0.1535628942
 C         -1.0602356226       -2.1436741235       -0.1694057828
 C          1.0120395950       -0.5953437621       -0.0583728295
 C          2.1792466809       -1.3331675375        0.0696556659
 C          3.4102438940       -0.6827791258        0.1812871758
 C          4.6688342843       -1.5214868623        0.3157046285
 C          4.5631124423       -2.3771852544        1.5867981051
 C          4.7933808147       -2.4330610340       -0.9145684231
 C          5.9429718391       -0.6789850350        0.4128701702
 C          3.4396433105        0.7165893308        0.1836892320
 C          2.2859907202        1.4807910301        0.0461449884
 C          1.0775501399        0.8260810071       -0.1042809947
 N         -0.2008290702        1.3375441377       -0.2320081441
 C         -0.5158739919        2.6772445548       -0.3136747108
 C          0.2115599723        3.5272956612       -1.1436704465
 C         -0.0847699596        4.8679234458       -1.2352273705
 C         -1.1318051842        5.4112469806       -0.4465982754
 C         -1.8507230669        4.6141980926        0.3965540572
 C         -1.5809627310        3.2312427364        0.5112366116
 C         -2.2000033023        2.4798447665        1.4936428600
 N         -2.7523339568        1.8610263309        2.3053817201
 H         -3.2592625539       -3.5459807386        1.8492935965
 H         -3.4413343740       -5.1244957084        1.0770132391
 H         -1.8524476994       -4.3707342463        1.1829277359
 H         -4.9343369856       -2.8952979171       -1.4452235535
 H         -5.1188285945       -2.7489129252        0.3120967576
 H         -5.1482190338       -4.3327580227       -0.4541405637
 H         -3.1610712964       -5.3171124397       -1.4694036383
 H         -2.8012532223       -3.8694546253       -2.4146504322
 H         -1.5768557327       -4.5568200914       -1.3498910303
 H         -4.1860549531       -0.9238598126       -0.6467391957
 H         -3.0096739129        1.1980559863       -0.6210541342
 H         -0.5080408326       -3.0638246333       -0.0610536554
 H          2.1175056766       -2.4096310429        0.0892162468
 H          5.4650623750       -2.9724466689        1.7104894511
 H          3.7132987271       -3.0518522428        1.5431974276
 H          4.4470215383       -1.7392692383        2.4600123549
 H          4.8511303278       -1.8347278594       -1.8215851451
 H          3.9435148125       -3.1040578827       -1.0024150602
 H          5.6959256984       -3.0355851313       -0.8402169893
 H          5.9273258348       -0.0431692851        1.2947847888
 H          6.0726549264       -0.0606433364       -0.4721638169
 H          6.8053971512       -1.3376911957        0.4908542484
 H          4.3728477935        1.2389337557        0.3020254047
 H          2.3431881152        2.5580924720        0.0749747836
 H          0.9729346017        3.0949157769       -1.7779947569
 H          0.4537310736        5.5005934471       -1.9216419488
 H         -1.3564057492        6.4642054189       -0.5226613976
 H         -2.6378062477        5.0264872980        1.0115838980
  57
  -77.4471444368000       3.757988206131156E-002 !
 C         -4.6249719476       -3.2962654929        0.5750761797
 C         -3.2421528642       -3.4779178200       -0.0646468045
 C         -3.4130890598       -3.9466292386       -1.5188010900
 C         -2.4965582084       -4.5598100787        0.7268568671
 C         -2.4694939437       -2.1713501894       -0.0957525467
 C         -3.1430446396       -0.9553261404       -0.2781990712
 C         -2.4807086944        0.2613039580       -0.3263231790
 C         -1.1030053440        0.2634990938       -0.1860758542
 C         -0.3872933335       -0.9618772978       -0.0738249346
 C         -1.0757280042       -2.1636935941       -0.0184014740
 C          1.0034342397       -0.6229322429       -0.0692640349
 C          2.1697683770       -1.3728427668        0.0101003014
 C          3.4054717329       -0.7315926151        0.0251378989
 C          4.7151162144       -1.4959148879        0.0996133061
 C          5.5709355997       -1.1420486326       -1.1258559369
 C          5.4550627636       -1.0972847670        1.3849745064
 C          4.5160111175       -3.0139097525        0.1162848483
 C          3.4429071422        0.6721345615       -0.0136798073
 C          2.2949434121        1.4444443774       -0.1033056969
 C          1.0736738678        0.7950961885       -0.1628067813
 N         -0.2067378313        1.3121124188       -0.2329724053
 C         -0.5189938644        2.6487177283       -0.3470295573
 C          0.1722339487        3.4649468391       -1.2407499886
 C         -0.1235836460        4.8020086461       -1.3681537432
 C         -1.1318721147        5.3798747714       -0.5520032975
 C         -1.8137256214        4.6185095393        0.3521176549
 C         -1.5432826979        3.2394542816        0.5066989144
 C         -2.1142115993        2.5299267169        1.5468785644
 N         -2.6273485404        1.9367381883        2.4027276595
 H         -5.2900006530       -2.7179259994       -0.0597364608
 H         -5.0876591758       -4.2679811915        0.7328350305
 H         -4.5364397395       -2.7961743624        1.5363911060
 H         -3.9530230701       -3.2017415354       -2.0988889310
 H         -3.9695478202       -4.8808395443       -1.5473439231
 H         -2.4429333845       -4.1047936413       -1.9852682003
 H         -3.1350080866       -5.4326146685        0.8450833670
 H         -1.5941983809       -4.8840726673        0.2156217768
 H         -2.2307289353       -4.1932959011        1.7156627141
 H         -4.2137959645       -0.9462194823       -0.3866583857
 H         -3.0348392145        1.1738635454       -0.4783000292
 H         -0.5158114688       -3.0784710586        0.0801675530
 H          2.0919713305       -2.4452700210        0.0652993611
 H          6.5085180636       -1.6927710738       -1.0962268123
 H          5.8009270127       -0.0810141156       -1.1592229584
 H          5.0438849979       -1.4063468436       -2.0402879841
 H          4.8394773469       -1.3169912686        2.2543034275
 H          5.6934323758       -0.0379561374        1.3956261840
 H          6.3840803938       -1.6570028397        1.4688130385
 H          4.0045465990       -3.3518915758       -0.7820820786
 H          3.9494177774       -3.3260104812        0.9903830722
 H          5.4862271864       -3.5048251747        0.1541755400
 H          4.3914619176        1.1818629775        0.0337277382
 H          2.3619348721        2.5215140823       -0.1089180972
 H          0.9009756952        3.0051893393       -1.8938409610
 H          0.3830656101        5.4063366057       -2.1026404675
 H         -1.3563826088        6.4302845384       -0.6576831027
 H         -2.5708571269        5.0571048577        0.9862881770
  57
  -77.4470289988000       3.325858600638554E-002 !
 C         -4.5415770910       -3.4185742097       -0.8377823463
 C         -3.2130992307       -3.4732300899       -0.0725043825
 C         -2.4020619035       -4.6538307789       -0.6229373827
 C         -3.5008677338       -3.7093843314        1.4192612374
 C         -2.4470258900       -2.1666178412       -0.1724049185
 C         -3.1306031797       -0.9474738978       -0.2958734954
 C         -2.4743297223        0.2722600150       -0.3240714611
 C         -1.0938669302        0.2776376968       -0.2100164495
 C         -0.3706637628       -0.9467384345       -0.1238895117
 C         -1.0541059384       -2.1522986532       -0.0871293395
 C          1.0177669376       -0.5996179071       -0.1179994370
 C          2.1905463450       -1.3361646987       -0.0487709230
 C          3.4265411350       -0.6850732557       -0.0289930629
 C          4.6909633703       -1.5226297675        0.0467648276
 C          4.7243149980       -2.4925596859       -1.1441376979
 C          5.9697475998       -0.6819658538        0.0073801607
 C          4.6787228210       -2.3163137603        1.3620511687
 C          3.4557080974        0.7133771390       -0.0551318752
 C          2.2949985698        1.4764538446       -0.1308085592
 C          1.0798615188        0.8203891423       -0.1909657694
 N         -0.2050027655        1.3305857885       -0.2438676433
 C         -0.5286182299        2.6684166624       -0.3193201414
 C          0.1364549265        3.5111632249       -1.2068719567
 C         -0.1769579516        4.8478598043       -1.2985923636
 C         -1.1755147502        5.3951611471       -0.4516848551
 C         -1.8299650872        4.6062544508        0.4494474987
 C         -1.5402337227        3.2276583001        0.5677301747
 C         -2.0826263691        2.4868893969        1.6019155528
 N         -2.5705379740        1.8747853968        2.4588505345
 H         -4.3805623738       -3.0907828673       -1.8624199765
 H         -4.9914883398       -4.4087115834       -0.8612776863
 H         -5.2521391997       -2.7494873682       -0.3612845406
 H         -1.5468687907       -4.8834777396        0.0065163855
 H         -2.0517347263       -4.4411061361       -1.6306678769
 H         -3.0276303698       -5.5430034328       -0.6583067649
 H         -4.0620041941       -4.6320362426        1.5503672384
 H         -2.5718103423       -3.7828909507        1.9799697813
 H         -4.0801909813       -2.8856133663        1.8292284193
 H         -4.2037043344       -0.9384221918       -0.3724840098
 H         -3.0346334636        1.1865030350       -0.4390785207
 H         -0.4905986075       -3.0657769534        0.0030441262
 H          2.1300701826       -2.4118439126       -0.0025623257
 H          5.6347427684       -3.0870992507       -1.1134393615
 H          4.7050698063       -1.9386760227       -2.0803532464
 H          3.8764497541       -3.1711960840       -1.1320317209
 H          6.0272601343       -0.0129425598        0.8625285778
 H          6.0262924611       -0.0982970505       -0.9084869911
 H          6.8354182112       -1.3403327062        0.0401395782
 H          3.8217057725       -2.9816306903        1.4166233612
 H          4.6363838974       -1.6363318301        2.2101649676
 H          5.5827991369       -2.9157284026        1.4439338561
 H          4.3944945854        1.2371053442       -0.0083505933
 H          2.3540058104        2.5540270352       -0.1251594729
 H          0.8582950833        3.0749894170       -1.8833588362
 H          0.3093227115        5.4739521789       -2.0286191838
 H         -1.4152174641        6.4445540545       -0.5302556119
 H         -2.5794746130        5.0216844620        1.1077440811
