90
 energy: -133.812767809574 gnorm: 0.000114754358 xtb: 6.7.1 (edcfbbe)
C            8.15595702913316        3.50500386134919       -0.80167344720957
C            8.16548606434240        2.05283478876495       -0.28791974831227
C            9.59910148960580        1.62814224741441        0.08234231851999
C            7.65727425972023        1.14904888452842       -1.39163789376453
C            8.32836927029478        1.10805609522492       -2.60601315162761
C            7.89039577405740        0.32713757264795       -3.65940573190028
C            6.73595106151697       -0.42486218608108       -3.51379131971143
C            6.05068236205167       -0.40518218365605       -2.31998605139726
C            6.50869541013039        0.35943176151725       -1.23817044065811
N            5.80834391473245        0.34322813978394       -0.04747973300620
C            4.66567888825438       -0.49141090314425        0.07098162110391
C            4.81256657516338       -1.87778297614888        0.15747722889656
C            3.71284505119040       -2.69005552788698        0.27517115481858
C            2.40669807446794       -2.15393035500975        0.29638848922052
C            1.22848426632419       -2.95114833412282        0.38893771459441
C            1.21848225037721       -4.37385638436817        0.59392295825288
C            0.03302479696119       -5.01806823677496        0.72402586082759
C           -1.20379393913079       -4.31654638473293        0.64965566203066
C           -2.38945677753147       -5.03076238604643        0.64173729243955
N           -3.33852641367993       -5.69422821466420        0.65576973053243
C           -1.11701963166079       -2.89412277034717        0.45454711252464
C           -2.28440276070154       -2.02869221380245        0.33266062893870
C           -2.16541046251878       -0.83385509683141       -0.38947174008236
C           -3.23541809282281        0.02022625962076       -0.52668320928138
C           -4.45661061443459       -0.29726544398878        0.06390862943992
N           -5.56992691252568        0.57702239805559       -0.08551268528414
C           -5.92596462044395        1.39791126443188        0.96685308201251
C           -5.16931677175741        1.37856162038408        2.14551865431030
C           -5.50595652820872        2.17780321948408        3.21527244517129
C           -6.60178355819428        3.02049494963887        3.12891622089535
C           -7.33779305744043        3.05877196119757        1.95917422685224
C           -7.02216604899987        2.26538182663519        0.86485724562196
C           -7.85138857327629        2.36959530372666       -0.39876190630543
C           -7.76992966150403        3.81649875830482       -0.92051843771909
C           -9.31028361248884        2.00464701800672       -0.06586370362657
C           -7.35592459076345        1.43115714139138       -1.48000580149692
C           -8.00483225609399        1.39475391558883       -2.70649732461388
C           -7.61135968299943        0.53889613540977       -3.71850959507968
C           -6.54752530819315       -0.32221034306280       -3.50570138724931
C           -5.88333349325464       -0.30682454905744       -2.29946960937958
C           -6.26435258724203        0.57517519969017       -1.28013664755689
C           -4.58398456908746       -1.47021871405748        0.79983780075543
C           -3.51083343477946       -2.32695135334002        0.93210911737159
N            0.04839300591985       -2.32550822693162        0.32277365498156
C            2.28360288170144       -0.74604566248554        0.20655702816819
C            3.38089505275103        0.06409911655435        0.10057177015476
C            6.18967797044972        1.11804795800191        1.03062022269875
C            5.46945474202441        1.03537357562394        2.23030839729196
C            5.81469216886253        1.80548336807601        3.31795436162403
C            6.89454338281876        2.66959729877962        3.23701157444567
C            7.62674579552540        2.73219871776289        2.06595382885267
C            7.30281317416591        1.96745646851377        0.95380459362507
H            8.52333859327547        4.18749646385409       -0.04062489767903
H            8.78277229687822        3.60862565166497       -1.68274763578223
H            7.14142850552069        3.79777958798555       -1.06545108870008
H            9.59923806580999        0.60212295944730        0.44541672189702
H           10.00373526433542        2.26762705602382        0.86163126745759
H           10.25545717530895        1.68679653973805       -0.78123712999665
H            9.21874644175468        1.70303450048919       -2.74102052226407
H            8.43851109592556        0.31564196383853       -4.58891279091808
H            6.36676662028586       -1.02385013381546       -4.33232413993785
H            5.14436756508677       -0.97989796606536       -2.21498239601008
H            5.80714777385651       -2.30102420848942        0.14114983753823
H            3.86144451513461       -3.75565968661893        0.35089520911512
H            2.15054905049074       -4.90544348677457        0.68989185912863
H           -0.00135445707857       -6.08649106027472        0.88868087336043
H           -1.21487308078138       -0.59822691435366       -0.84321320566284
H           -3.14226401481227        0.93655421445574       -1.09146640789019
H           -4.30974034298583        0.73062441382300        2.21328804193451
H           -4.91128629012803        2.14432194512323        4.11547362036672
H           -6.87706849067829        3.64856394405272        3.96214909825553
H           -8.18125182347862        3.72987459034691        1.90283471799842
H           -8.14074834340768        4.51758634878268       -0.17823007287278
H           -6.73628715338271        4.07095337501702       -1.14731780922532
H           -8.35909702437220        3.93566566561167       -1.82531270731894
H           -9.36165198050253        0.98018154085851        0.29776654856531
H           -9.70871943875322        2.66184858648080        0.70184285070996
H           -9.94102863624305        2.08792967173991       -0.94631174450270
H           -8.84467681358708        2.04946490082968       -2.88264942263435
H           -8.13708622760106        0.53776615729541       -4.66090814676633
H           -6.23675942315449       -1.00936083261946       -4.27778051966802
H           -5.06377681770086       -0.98793387926168       -2.13370473491001
H           -5.53019053612558       -1.70483787681731        1.26468986655315
H           -3.62490699220027       -3.22773842429905        1.51290806733968
H            1.28864576090309       -0.32761904327937        0.21833797598624
H            3.27177193549948        1.13689592940419        0.02677770838415
H            4.63778577946409        0.35283081804111        2.30192913678841
H            5.24369397969885        1.72785607961051        4.23065290115020
H            7.17219446830797        3.28071112980851        4.08200378161132
H            8.47659926639312        3.39631150625502        2.02454734700210
