90
 energy: -133.812411761147 gnorm: 0.000069069582 xtb: 6.7.1 (edcfbbe)
C            8.36104736370809        3.35676530938268       -0.35147548673955
C            8.23543176701224        1.95582466318352        0.27659266047189
C            9.56181940185963        1.55181106128506        0.94769934818527
C            7.91983709617419        0.96444603326465       -0.82342524407528
C            8.80581293672563        0.81208692508442       -1.88107262397591
C            8.54982374109769       -0.04653966535689       -2.93386638104425
C            7.36297265576036       -0.76103640720225       -2.95398749823564
C            6.46717509067437       -0.63245273863624       -1.91672406562038
C            6.74063101325098        0.20531900512881       -0.82630231171126
N            5.83466630144748        0.28969394437745        0.21387036459269
C            4.67838295824221       -0.53254744924019        0.19012487027486
C            4.79556439234407       -1.91685261537429        0.34570649622008
C            3.68402676001223       -2.71958872037597        0.31866916657825
C            2.39293171888273       -2.17684535832602        0.12930627523859
C            1.20657977730411       -2.96333761411605        0.08692826253511
C            1.17525915644702       -4.39942435261817        0.11950794395599
C           -0.01694765790849       -5.04460794236992        0.10107853259971
C           -1.24325294455898       -4.32259141849676        0.04391389708182
C           -2.44961240630513       -4.99908086286079        0.08742877776591
N           -3.42563299565297       -5.61880503068624        0.15586282073635
C           -1.13325858411404       -2.89254709615045       -0.01999007476652
C           -2.29325909700780       -2.01039033041354       -0.11837525652774
C           -2.21594175721608       -0.73418503184596        0.45107435480283
C           -3.29038881863108        0.12560137368702        0.40786015568308
C           -4.46882544629750       -0.26769193164757       -0.22159340580908
N           -5.58997896229768        0.60766854073446       -0.24911879642348
C           -6.67347845294438        0.33241943610970        0.56536472756438
C           -6.63543515588821       -0.77816689426020        1.41833091627889
C           -7.70546753379977       -1.08433965506851        2.22933748686921
C           -8.83478204259607       -0.28256315003483        2.21400396575317
C           -8.86587247695245        0.82921521283207        1.39303431514153
C           -7.80248737059091        1.16281942390354        0.56537456616990
C           -7.88532782426065        2.41068906076964       -0.28962720009759
C           -8.06430636702249        3.62788081466432        0.63714766138735
C           -9.09080945333017        2.28253505232233       -1.23978654447767
C           -6.63589445145710        2.60994985499814       -1.12254750866323
C           -6.54449741641635        3.70689534662538       -1.96813246451697
C           -5.44050800465371        3.92327922315235       -2.77168347737947
C           -4.39680223910648        3.01308677546360       -2.75109670147414
C           -4.45914365041203        1.91629651433748       -1.92059919955536
C           -5.56358342613088        1.70807553910217       -1.08424751439278
C           -4.54676633321905       -1.52075573188655       -0.82024856765454
C           -3.47159840939725       -2.38342772552926       -0.76816853548484
N            0.03440299600719       -2.31696076169849        0.01361798406297
C            2.29888724406207       -0.77086489795464       -0.01974414557401
C            3.40807901414739        0.02898358623939        0.00807575813614
C            6.03020566748267        1.14892932881741        1.27822886294684
C            5.10693073788832        1.16685036003608        2.33313537715896
C            5.26018539558450        2.02982432183933        3.39467456570749
C            6.34688561745204        2.88816179646097        3.43549123207710
C            7.28115601231879        2.84705871156236        2.41731642370546
C            7.15346245981843        1.98691709959399        1.33540363992217
H            8.59897535363604        4.10033148489410        0.40375984337949
H            9.14342204155625        3.37494421763353       -1.10477397720398
H            7.42168756617815        3.63567820405812       -0.82513854747581
H            9.46623669184189        0.56240099551910        1.39096533636059
H            9.82879606152855        2.25438413414294        1.73200091308327
H           10.37064991968067        1.52673260875527        0.22302401350448
H            9.72372019669672        1.37982622620428       -1.89071057217691
H            9.26307118635731       -0.14524203293373       -3.73763959851673
H            7.13304043304586       -1.41597003030504       -3.78057644274207
H            5.53737559698376       -1.17756278220373       -1.94499307460348
H            5.77632006640106       -2.34476020985434        0.49990767583904
H            3.80789433025577       -3.78137959361783        0.46207148010040
H            2.09973195416186       -4.95018641052186        0.17345271061671
H           -0.06470352948097       -6.12455242104831        0.13273505792219
H           -1.30146966901718       -0.44311109461567        0.94504545975190
H           -3.23388092906472        1.10291809516935        0.86501939572273
H           -5.75630380939612       -1.40201482324006        1.44293309184706
H           -7.65566024328802       -1.94830471880119        2.87403258109523
H           -9.68093608897491       -0.51534005006372        2.84194312361561
H           -9.74687443262799        1.45272517176386        1.40278066266725
H           -8.96342769165640        3.52794965800355        1.23841174292098
H           -7.21077141304853        3.71178647487055        1.30724296465625
H           -8.14030443716006        4.54583710853826        0.06127133512728
H           -8.95767379627454        1.42186649269542       -1.89244566121768
H          -10.01246531890304        2.14964150640777       -0.68051535827036
H           -9.19300170264002        3.16959154112627       -1.85844466235575
H           -7.35700607061005        4.41631780794938       -2.00696347953228
H           -5.40062620932752        4.78873110212743       -3.41506846951635
H           -3.53444836723780        3.15516323664831       -3.38461153882165
H           -3.64941584583350        1.20393957563467       -1.91800559586761
H           -5.45707747955709       -1.81286434103630       -1.32263148218998
H           -3.54379956716615       -3.34607315626673       -1.24827685735105
H            1.31880484419374       -0.34774119936600       -0.17895741127364
H            3.32172257856578        1.09835950683719       -0.12415339429443
H            4.26910829324182        0.48856283461996        2.31480200466498
H            4.53372711489898        2.02918338574204        4.19302018141619
H            6.47431838461535        3.57295890723815        4.25972050569896
H            8.13515857016608        3.50457231132107        2.47487068861505
