  90
       -133.80981003
 C          8.0085352974        3.5260454575       -0.9210793056
 C          8.0722827083        2.0830645261       -0.3855074527
 C          9.5288536896        1.6978518226       -0.0650279885
 C          7.5430455207        1.1504308052       -1.4547887889
 C          8.1684370547        1.1032121169       -2.6930591308
 C          7.7067182774        0.2970422864       -3.7169354901
 C          6.5745625931       -0.4759604145       -3.5158750532
 C          5.9350311169       -0.4513917015       -2.2971801876
 C          6.4173290084        0.3405609063       -1.2458285432
 N          5.7629499839        0.3301473955       -0.0297545781
 C          4.6318085118       -0.5124452234        0.1379172737
 C          4.7929234506       -1.8945098537        0.2573874953
 C          3.7015547694       -2.7133018114        0.4083254041
 C          2.3917487577       -2.1878862199        0.4281619778
 C          1.2184434791       -2.9952350765        0.5348305346
 C          1.2218476297       -4.4107421212        0.7791308650
 C          0.0375714651       -5.0630249708        0.8970314393
 C         -1.2017155040       -4.3790718615        0.7752627060
 C         -2.3752298171       -5.1138367920        0.7646420871
 N         -3.3096877623       -5.7976790882        0.7781009312
 C         -1.1268874100       -2.9590199424        0.5498493850
 C         -2.2898985753       -2.0983138935        0.3891928053
 C         -2.1344904512       -0.8812575061       -0.2916091308
 C         -3.1913839345       -0.0173729611       -0.4524911945
 C         -4.4414752111       -0.3445524279        0.0710245532
 N         -5.5360755433        0.5505112615       -0.0906614438
 C         -5.9282571271        1.3306435178        0.9793551547
 C         -5.2398933104        1.2333184788        2.1958285369
 C         -5.6143321887        1.9907999699        3.2829759838
 C         -6.6798772506        2.8696068369        3.1776192972
 C         -7.3471730430        2.9856167138        1.9723368132
 C         -6.9926933208        2.2351533591        0.8598009565
 C         -7.7438114661        2.4264880527       -0.4416305070
 C         -7.5861142162        3.8927704418       -0.8861970441
 C         -9.2303345717        2.0966388345       -0.2103335402
 C         -7.2158127397        1.5243508046       -1.5378982980
 C         -7.7943142096        1.5659391568       -2.7988791679
 C         -7.3677652575        0.7469317027       -3.8278782495
 C         -6.3428098627       -0.1562823824       -3.5984579866
 C         -5.7483830058       -0.2184044548       -2.3580617840
 C         -6.1613805234        0.6267768597       -1.3196770661
 C         -4.6101553221       -1.5432267824        0.7565539794
 C         -3.5491275129       -2.4102920512        0.9122671316
 N          0.0387778583       -2.3814186031        0.4332830626
 C          2.2548304365       -0.7838387447        0.3130565680
 C          3.3432867766        0.0335595768        0.1757760982
 C          6.1684137927        1.1283759121        1.0210695145
 C          5.4937507123        1.0501468878        2.2473831517
 C          5.8632926063        1.8433571295        3.3100117353
 C          6.9217577668        2.7273853186        3.1760642748
 C          7.6089261506        2.7870682446        1.9777709972
 C          7.2603422829        1.9986825954        0.8899580102
 H          8.3887979890        4.2292452227       -0.1856298323
 H          8.5981066162        3.6293166633       -1.8275500010
 H          6.9778946369        3.7909857335       -1.1496036755
 H          9.5676146263        0.6777419116        0.3123207432
 H          9.9474975286        2.3584818879        0.6888027792
 H         10.1499933122        1.7589416608       -0.9540928468
 H          9.0403609749        1.7138973425       -2.8713446713
 H          8.2188746393        0.2821037364       -4.6666735709
 H          6.1871529142       -1.0951985911       -4.3105391245
 H          5.0461369559       -1.0432868135       -2.1482147144
 H          5.7909594971       -2.3092280311        0.2370184295
 H          3.8597168606       -3.7757347296        0.5060170970
 H          2.1561090919       -4.9303564026        0.9121997769
 H          0.0106709082       -6.1275694199        1.0877576781
 H         -1.1618383070       -0.6371431697       -0.6903302427
 H         -3.0668706903        0.9167989269       -0.9809444742
 H         -4.4029697669        0.5583079462        2.2790928947
 H         -5.0722679394        1.8972197632        4.2116833683
 H         -6.9841486552        3.4657849194        4.0240651974
 H         -8.1663765330        3.6847968415        1.9021408026
 H         -7.9792810396        4.5704805815       -0.1337796108
 H         -6.5332350105        4.1223036068       -1.0385895393
 H         -8.1150423433        4.0739691919       -1.8174000699
 H         -9.3355859122        1.0579138585        0.0969306917
 H         -9.6511748311        2.7287658862        0.5665248859
 H         -9.8060336095        2.2455847551       -1.1193228023
 H         -8.6038730060        2.2539528336       -2.9894350589
 H         -7.8383998673        0.8066793334       -4.7970914288
 H         -6.0082006146       -0.8153113785       -4.3849885650
 H         -4.9596336437       -0.9316979696       -2.1792899077
 H         -5.5794673214       -1.7884280887        1.1651416224
 H         -3.6977322376       -3.3303235550        1.4533466200
 H          1.2566493273       -0.3739093716        0.3299787470
 H          3.2242633556        1.1036813948        0.0814167950
 H          4.6785630331        0.3529758058        2.3580929271
 H          5.3282111795        1.7688795792        4.2444512491
 H          7.2175216991        3.3570890661        4.0010188572
 H          8.4419320442        3.4684139530        1.8948258755
