131
 energy: -177.690094660674 gnorm: 0.000029039063 xtb: 6.7.1 (edcfbbe)
C            0.18859927984457        5.64221558317409       -1.08141928311504
C           -0.92911288484793        4.69739154880305       -1.51097725526146
C           -1.16392479619992        3.54357393928299       -0.53141131789675
C           -0.03446399890911        2.51735822100341       -0.56766867210675
C           -0.13489632224762        1.34880551181180        0.43639724071178
C           -0.26027122811087        1.79318132681385        1.90923895249205
C            0.83554833273311        2.71326365296155        2.44047872626664
C            0.52334591145129        3.17335682537291        3.86451214103623
C            1.61593081818413        4.08142146446716        4.41784580880860
C            1.05451363917024        0.43720997945541        0.19785259116394
C            2.39799150118786        0.72718895690874        0.25392054144737
C            3.32823139416053       -0.28056103062393       -0.03629816709531
C            4.70702005750453        0.00402566973236        0.03240833262719
C            5.88801091528343        0.25530978502046        0.09809283164470
C            7.26586354332620        0.54165059454531        0.17420321094007
C            7.70053311442804        1.72387800206484        0.78591843701718
C            9.04629016378689        2.01793180976234        0.87682156203417
C            9.96445634731682        1.12087198420682        0.34785920254362
C            9.53496659081063       -0.06407726268399       -0.27244885033436
C            8.19536643858225       -0.35880209632515       -0.36334777396512
C           10.71403897352347       -0.84651070215120       -0.81186927125922
C           10.75848164535597       -2.28510260291627       -0.27638212910911
C           10.71922162709679       -2.35312932964188        1.24999597529060
C           10.79801411007862       -3.79350311938786        1.74307214506873
C           10.60022074537812       -0.81476163698261       -2.35586717899393
C           11.77401365291849       -1.39986279409136       -3.13694888256119
C           11.48918832025579       -1.37565381641437       -4.63560560950522
C           11.87508613858543       -0.01347918882638       -0.31887972135072
C           13.22426160564012       -0.26678048417603       -0.40200521661356
C           14.11915560279275        0.67499056656060        0.12503074186952
C           15.50523955557988        0.43279873631182        0.03978202148867
N           16.63411290355742        0.23159398477029       -0.03459888837846
C           13.65786452341183        1.84574592715690        0.73482253713516
C           12.30144245285873        2.08265194568604        0.84322821028857
C           11.41289129120363        1.15115657492140        0.32337822600089
C            2.89512343102534       -1.56101809868627       -0.39662925950608
C            1.54710300853950       -1.84527845519271       -0.48225031274644
C            0.62949540859640       -0.84542376274583       -0.19031280035121
C           -0.81785328026649       -0.86175861012300       -0.22554013077501
C           -1.69755189266639       -1.89155572994185       -0.52969672876799
C           -3.05524342343703       -1.65203953753415       -0.46360521402610
C           -3.53567191929360       -0.39611619549004       -0.07758593725812
C           -4.92409965940362       -0.16829329837789        0.00473049319419
C           -6.11409000492571        0.03507835256567        0.07385196683560
C           -7.50273731419687        0.26139723492689        0.15512614152649
C           -7.98650337991171        1.53737513199592        0.46645051831566
C           -9.34425879395347        1.77506635567024        0.52916174560903
C          -10.22068612114087        0.72282856670475        0.29968705239781
C           -9.74525436855694       -0.56919571156794        0.01525397127786
C           -8.39173352321456       -0.79598352604929       -0.08215725517903
C          -10.89732691652433       -1.53126977187432       -0.20539715836736
C          -10.78758372613038       -2.07607914374292       -1.64534044002562
C          -11.88816227638717       -3.02964913889066       -2.10403970056141
C          -11.57304918704768       -3.59057107932456       -3.48757023555696
C          -10.97271760021877       -2.62661910595205        0.88067842585867
C           -9.83808350785043       -3.64779910692208        0.90306193027730
C          -10.10092139016219       -4.72083754894021        1.95537017580561
C          -12.08905478531488       -0.61294980038098       -0.01384145456227
C          -13.43140573020217       -0.91401780288987       -0.03064074565327
C          -14.35631458699337        0.11351420172074        0.20075477571346
C          -15.73455990821781       -0.18090514192084        0.17503871686845
N          -16.85721032915379       -0.42482378410254        0.15192362310139
C          -13.93378410284474        1.42021648041943        0.46372859500022
C          -12.58557080941757        1.71294878814434        0.51400390894810
C          -11.66799440108612        0.69681853429433        0.28158668971752
C           -2.64349381429793        0.63909191207287        0.23498339683479
C           -1.29033470839115        0.41193609916708        0.13696638655015
H            0.26051668213459        6.47838287920465       -1.77404727409193
H            1.15065730949416        5.13594435694824       -1.06738956876872
H           -0.00919486050967        6.03904555340797       -0.08736934076682
H           -1.85561260387813        5.27126441132635       -1.59589589271717
H           -0.70265343566085        4.29151282508085       -2.50001502445294
H           -2.10073732451481        3.05456853623884       -0.80203267078546
H           -1.26944909991134        3.95422097883721        0.47369779474692
H            0.01077565342085        2.08478844179895       -1.57204874954923
H            0.91528112880427        3.02190193686414       -0.39081342652505
H           -1.22487337634210        2.29012020471758        2.02973533987127
H           -0.28696291305922        0.88847737208408        2.52460627682166
H            1.79037542739665        2.18629343469933        2.44648911199029
H            0.93239595662410        3.59184502884795        1.80141618172415
H            0.41618409635355        2.29924849684410        4.51185282256975
H           -0.42969885257206        3.70843624814992        3.87351809883681
H            1.72526497208211        4.96978288190557        3.79856722905399
H            2.57089076993946        3.55993661034393        4.43997900132708
H            1.37498752911434        4.39753511243354        5.43066315519461
H            2.76101544368951        1.71238257322579        0.50453700842266
H            6.96488657117442        2.40410924049033        1.19031708931153
H            9.37511118668388        2.93010193933075        1.35217036198082
H            7.84443743203262       -1.26597916221155       -0.83303605650167
H           11.67174685241518       -2.76894187394962       -0.62542314416522
H            9.90922616731771       -2.83855776745668       -0.68233239665716
H            9.79639277728818       -1.89530077929777        1.61356859056767
H           11.55534871111099       -1.78269767035679        1.66228733459062
H           11.72565958148838       -4.25988115864264        1.41671452639882
H            9.96580380794681       -4.37706934506211        1.35442091376795
H           10.76227275731169       -3.82701392515510        2.82968629709620
H            9.69168081953879       -1.35595636459037       -2.62991650987052
H           10.46543389247391        0.22687007533019       -2.66183538634023
H           11.95615976163889       -2.43045130112773       -2.82866644254805
H           12.67594539367203       -0.81810238187624       -2.94028792683621
H           12.33197642860416       -1.78377435607127       -5.18924301051284
H           10.60650706890458       -1.96790879618585       -4.86860397392586
H           11.31705186883609       -0.35634997725587       -4.97575646801670
H           13.61075356453674       -1.17124149303555       -0.84688028460952
H           14.37362019760333        2.55277466063357        1.12893067959972
H           11.94278196365978        2.97586699314371        1.33168141908149
H            3.63023976175144       -2.32231012695622       -0.61541277467677
H            1.21424582911201       -2.82942390076328       -0.77782145049674
H           -1.32802649266096       -2.86730692600293       -0.80901705043436
H           -3.76150913203583       -2.43562452072810       -0.69808326169434
H           -7.28199936676099        2.33697578244004        0.64421406428783
H           -9.71655730586027        2.76454898361785        0.74905956043419
H           -7.99132044816784       -1.76324301500471       -0.34414576578965
H          -10.76573944428930       -1.21682506750330       -2.32251299975238
H           -9.82498009039623       -2.58193323894489       -1.73863820630300
H          -11.98731323956431       -3.85788567018624       -1.40122451057855
H          -12.84172618951842       -2.50171158864135       -2.14884507198636
H          -12.36907113571273       -4.25382333146539       -3.81923450290121
H          -11.47337065463879       -2.78570323879897       -4.21326042716459
H          -10.64192035264551       -4.15374498419353       -3.47210044524143
H          -11.00818607655040       -2.12424303313198        1.85225695750379
H          -11.91873883959113       -3.15788675838391        0.75975184455206
H           -8.89685460194482       -3.14971932602757        1.13722904745742
H           -9.74196888266790       -4.12566718606780       -0.07267051655064
H          -10.19446754437859       -4.27363630809859        2.94317930159530
H          -11.02134425506168       -5.25891415190894        1.73629704428580
H           -9.28311152746767       -5.43783367600121        1.98029028832285
H          -13.79465797835079       -1.91485216689602       -0.20746452615139
H          -14.67224141152236        2.18973297241446        0.63677634226784
H          -12.25434507882148        2.71591628902826        0.73603228433166
H           -3.04269820213338        1.58949692003285        0.55522373229000
