  131
       -177.55592453
 C         -0.2078579935        5.0165094941        1.7630819778
 C         -0.2922862592        3.6005119166        2.3186634775
 C         -0.1999223368        2.5527635872        1.2124055676
 C         -0.2956089137        1.1349482691        1.7700964310
 C         -0.1902644878        0.0537767968        0.6793734229
 C         -0.3105233461       -1.3387162294        1.3241933216
 C         -0.2280465701       -2.4699235766        0.3017192064
 C         -0.2922664074       -3.8554371821        0.9443302643
 C         -1.6498762880       -4.1665428181        1.5642204555
 C          1.0914677372        0.1925648873       -0.1081080731
 C          2.3762237302        0.0988050071        0.3269803095
 C          3.4365402942        0.2590512521       -0.6054456561
 C          4.7521517553        0.1563122332       -0.2006141569
 C          5.9223292251        0.0588569718        0.1403641930
 C          7.2541518104       -0.0557667756        0.5058816459
 C          7.6091207636       -0.3126841538        1.8494653991
 C          8.9244961017       -0.4340761812        2.2219777290
 C          9.9196619170       -0.3014071566        1.2512651629
 C          9.5738411787       -0.0438759208       -0.0963089291
 C          8.2669875112        0.0800016548       -0.4728770916
 C         10.8154926164        0.0537347241       -0.9506425999
 C         10.8314201927       -1.0299957941       -2.0438870637
 C         10.7120534429       -2.4462667687       -1.4853381766
 C         10.7274388836       -3.4839837407       -2.6005135126
 C         10.9428806472        1.4421993120       -1.6028095032
 C         10.9357728960        2.5834681910       -0.5881909053
 C         11.0602023324        3.9366379783       -1.2767900902
 C         11.9043910543       -0.1776380580        0.0686523127
 C         13.2617300280       -0.2059676455       -0.1209019463
 C         14.0895926640       -0.4430277418        0.9883536007
 C         15.4855364196       -0.4776521752        0.8138394232
 N         16.6246366192       -0.5035265911        0.6622818072
 C         13.5413742833       -0.6458132084        2.2621511391
 C         12.1764196126       -0.6166816744        2.4487911335
 C         11.3501934618       -0.3826645372        1.3510266109
 C          3.1367825330        0.5211220034       -1.9699164138
 C          1.8471516654        0.6166198155       -2.4050849989
 C          0.7971650952        0.4507049229       -1.4808859404
 C         -0.6026567117        0.4840933913       -1.6538841435
 C         -1.3871694641        0.6901294989       -2.8055585733
 C         -2.7468517972        0.6539146091       -2.6985665472
 C         -3.3815641643        0.4161426781       -1.4490870565
 C         -4.7594158005        0.3699499029       -1.3809748782
 C         -5.9805779683        0.3214493536       -1.3411680463
 C         -7.3648629671        0.2595946491       -1.3216398289
 C         -8.0907339844        0.4015255048       -2.5265928677
 C         -9.4610443267        0.3329481979       -2.5388962515
 C        -10.1397121985        0.1229029952       -1.3366213723
 C         -9.4224002408       -0.0140181452       -0.1248239341
 C         -8.0580125422        0.0501207178       -0.1064602852
 C        -10.3735090129       -0.2244881907        1.0295768577
 C        -10.1271528406       -1.5753934895        1.7245245392
 C        -10.2183523018       -2.7639814925        0.7700520157
 C         -9.9683325842       -4.0788932934        1.4975033482
 C        -10.2628638024        0.9126811976        2.0614260083
 C        -10.4959136432        2.2948679608        1.4551501460
 C        -10.3831539760        3.3886184598        2.5094704715
 C        -11.7109820260       -0.2004532680        0.3302247395
 C        -12.9622551741       -0.3468072940        0.8703907177
 C        -14.0741737532       -0.2866555248        0.0145633150
 C        -15.3671057052       -0.4351294686        0.5498434386
 N        -16.4203056312       -0.5585523444        0.9936677521
 C        -13.9096154851       -0.0808649866       -1.3619349251
 C        -12.6501445960        0.0662139283       -1.9012790853
 C        -11.5433865234        0.0068217069       -1.0563257734
 C         -2.5888543511        0.2179902161       -0.2864754576
 C         -1.2338736972        0.2503870391       -0.3951690632
 H         -1.0195975658        5.1995339081        1.0623448618
 H          0.7345929167        5.1648682353        1.2404320151
 H         -0.2748492826        5.7476314197        2.5651153804
 H          0.5183245429        3.4423454269        3.0339969145
 H         -1.2359860055        3.4769241294        2.8554117042
 H          0.7472477010        2.6715549018        0.6813329719
 H         -1.0058234950        2.7152589617        0.4930556777
 H          0.5044904816        0.9787349166        2.4969417285
 H         -1.2479958708        1.0168012165        2.2915374083
 H          0.4896257346       -1.4573414165        2.0578748257
 H         -1.2631860588       -1.3896912987        1.8517418930
 H         -1.0443719929       -2.3693934639       -0.4170305358
 H          0.7112400067       -2.3804585647       -0.2495303384
 H          0.4843209766       -3.9360866954        1.7085614849
 H         -0.0772047420       -4.6022244808        0.1766364106
 H         -1.8546168549       -3.5154149561        2.4102683385
 H         -1.6757369667       -5.1946239907        1.9176006926
 H         -2.4414143302       -4.0367278639        0.8289327154
 H          2.6174543431       -0.0979633844        1.3614368323
 H          6.8196177242       -0.4124784882        2.5799921947
 H          9.1872788779       -0.6306278770        3.2507797089
 H          7.9844690813        0.2764512740       -1.4968186299
 H         11.7616440038       -0.9445320894       -2.6093923921
 H         10.0040069903       -0.8449816401       -2.7322592154
 H          9.7834135780       -2.5357850952       -0.9171813561
 H         11.5401788483       -2.6375049255       -0.7993464547
 H          9.8987091200       -3.3204555803       -3.2862084118
 H         10.6397283974       -4.4866284073       -2.1896532324
 H         11.6557424207       -3.4248088316       -3.1646551461
 H         11.8719799954        1.4770760092       -2.1755052045
 H         10.1147001981        1.5781438376       -2.3016252186
 H         11.7649252396        2.4535591107        0.1108045676
 H         10.0083009531        2.5517250266       -0.0120234339
 H         10.2305989155        4.0941274972       -1.9628501489
 H         11.0560932100        4.7394282432       -0.5437640778
 H         11.9879090779        3.9936067513       -1.8421833256
 H         13.7052728679       -0.0524489718       -1.0937472710
 H         14.2060665503       -0.8253796063        3.0945787280
 H         11.7560583228       -0.7730450857        3.4307096750
 H          3.9617228703        0.6413922487       -2.6570862966
 H          1.6272845770        0.8144839958       -3.4435380329
 H         -0.9122196489        0.8705970130       -3.7582683681
 H         -3.3734032013        0.8044794053       -3.5656495083
 H         -7.5399284232        0.5623489564       -3.4417758782
 H        -10.0076056835        0.4391564226       -3.4640665872
 H         -7.4944956361       -0.0541584544        0.8092500975
 H         -9.1360781164       -1.5583180610        2.1828671969
 H        -10.8620131119       -1.6988251481        2.5226846467
 H        -11.2088299984       -2.7855215280        0.3103915783
 H         -9.4841095088       -2.6446501135       -0.0297930568
 H        -10.0355227166       -4.9156351254        0.8067339191
 H         -8.9778874105       -4.0844569697        1.9478541818
 H        -10.7038538841       -4.2253203795        2.2856156214
 H        -10.9946415377        0.7402403051        2.8533313982
 H         -9.2687462938        0.8813266821        2.5123698106
 H        -11.4884285031        2.3295436036        1.0006990666
 H         -9.7630429958        2.4733746973        0.6651230855
 H        -11.1188608601        3.2376856818        3.2965770301
 H         -9.3930156445        3.3846052729        2.9604658170
 H        -10.5533636183        4.3658673460        2.0646371711
 H        -13.1123508225       -0.5056838003        1.9282190823
 H        -14.7856151810       -0.0395921694       -1.9927157978
 H        -12.5252520982        0.2243231275       -2.9617894309
 H         -3.0831879363        0.0397979915        0.6574112992
