  131
       -177.62886991
 C          0.0474926588        4.3452244724       -1.6654538743
 C         -0.1487643181        3.5040479001       -0.4105200780
 C         -0.1120295919        2.0105967372       -0.7229938523
 C         -0.2830630990        1.1636380246        0.5356628253
 C         -0.2316344971       -0.3482514997        0.2500668117
 C         -0.3943153339       -1.1266837271        1.5669979711
 C         -0.3605961629       -2.6397267238        1.3629845874
 C         -0.4640929489       -3.4167881332        2.6752156266
 C         -1.8275598668       -3.2841674640        3.3440922608
 C          1.0416382391       -0.7217252370       -0.4684375206
 C          2.3376875107       -0.5806636261       -0.0381328257
 C          3.3793395084       -0.9749744804       -0.8886104961
 C          4.7120468344       -0.8138721007       -0.4599464964
 C          5.8401902232       -0.6492294575       -0.0584579686
 C          7.1522232393       -0.4432556664        0.4125040838
 C          7.4102356246       -0.4921663278        1.7871414210
 C          8.6843781832       -0.2809031229        2.2753151543
 C          9.7073305298       -0.0113235885        1.3777270255
 C          9.4534920133        0.0418624150       -0.0033085014
 C          8.1878917819       -0.1761326488       -0.4919353730
 C         10.7154714611        0.3625942297       -0.7674235706
 C         11.0853756624       -0.7646269371       -1.7475758780
 C         11.2351356366       -2.1241879159       -1.0684120010
 C         11.5954725299       -3.2086892670       -2.0757256780
 C         10.5799015715        1.6891517293       -1.5372258966
 C         10.2153328409        2.8692792836       -0.6390440295
 C         10.0794699302        4.1557588211       -1.4435792633
 C         11.7246538376        0.4781659355        0.3488706593
 C         13.0666651596        0.7599838150        0.2662786618
 C         13.8100065556        0.8209377733        1.4521675368
 C         15.1893342011        1.1108415086        1.3880860919
 N         16.3111061410        1.3471771795        1.3286819864
 C         13.2049110519        0.6004028322        2.6924351795
 C         11.8545031576        0.3174539612        2.7693023879
 C         11.1151090364        0.2570042634        1.5967885126
 C          3.0956160799       -1.5102165851       -2.1488317731
 C          1.7897051645       -1.6598448338       -2.5752569436
 C          0.7599317998       -1.2621053712       -1.7351150585
 C         -0.6792018933       -1.2844155340       -1.9141045807
 C         -1.4599399028       -1.7199960549       -2.9750431220
 C         -2.8347067559       -1.6195726959       -2.8787332512
 C         -3.4342888714       -1.0878349330       -1.7325846032
 C         -4.8351984681       -0.9771496692       -1.6392128905
 C         -6.0319796282       -0.8553488351       -1.5213695383
 C         -7.4224563644       -0.6916963697       -1.3699869847
 C         -8.2997378003       -1.1024397963       -2.3796899580
 C         -9.6633857218       -0.9315697725       -2.2432859288
 C        -10.1520143645       -0.3431915647       -1.0854187671
 C         -9.2757218102        0.0670130373       -0.0662312459
 C         -7.9194647145       -0.1032297975       -0.1988865175
 C        -10.0392143412        0.6765623384        1.0845640314
 C         -9.8322835220       -0.1235771431        2.3832404777
 C        -10.2132474679       -1.5961880388        2.2478520246
 C         -9.9864176185       -2.3482280110        3.5531435800
 C         -9.6318036802        2.1427254676        1.3156075726
 C         -9.7950763683        3.0136985895        0.0719085090
 C         -9.3657501769        4.4500931142        0.3425281130
 C        -11.4621919749        0.5700690198        0.5936481314
 C        -12.6169159820        0.9729326369        1.2191350045
 C        -13.8375328382        0.7701389059        0.5621601638
 C        -15.0338135855        1.1798676303        1.1879231266
 N        -16.0024338082        1.5170024060        1.7033203937
 C        -13.8838871968        0.1710363014       -0.6995468147
 C        -12.7188384371       -0.2323631396       -1.3238224295
 C        -11.5078772879       -0.0317949561       -0.6767896061
 C         -2.6435476592       -0.6501651443       -0.6609174673
 C         -1.2781907342       -0.7511142136       -0.7597801979
 H         -0.7346124095        4.1339808277       -2.3915066799
 H          1.0084096582        4.1236632306       -2.1247028323
 H          0.0173496213        5.4054366602       -1.4259830649
 H          0.6364436740        3.7412418678        0.3113891128
 H         -1.1076851653        3.7547839016        0.0491707189
 H          0.8411167418        1.7670445008       -1.1966647498
 H         -0.9062837516        1.7709703066       -1.4331211348
 H          0.5069436903        1.4132153434        1.2472434784
 H         -1.2410188795        1.4012712792        1.0031150151
 H          0.4084348725       -0.8374395578        2.2485998129
 H         -1.3429197073       -0.8380211214        2.0200814384
 H         -1.1804051061       -2.9353606444        0.7049653867
 H          0.5752520176       -2.9082892781        0.8673968166
 H          0.3134050021       -3.0732936329        3.3616806150
 H         -0.2763040973       -4.4726004642        2.4672022255
 H         -2.0095621196       -2.2621185900        3.6665396604
 H         -1.8824845612       -3.9275667374        4.2190865780
 H         -2.6177537324       -3.5744789253        2.6546858829
 H          2.5713177851       -0.1673354807        0.9323346314
 H          6.5940068675       -0.7003103081        2.4635072729
 H          8.8766930301       -0.3221760083        3.3370753334
 H          7.9743929220       -0.1397646119       -1.5502570254
 H         12.0229599701       -0.5056030968       -2.2439439966
 H         10.3096650256       -0.8301736994       -2.5133684182
 H         10.2991357738       -2.3862128400       -0.5701346922
 H         12.0126908265       -2.0654664991       -0.3034866652
 H         10.8224049964       -3.2956003779       -2.8362703437
 H         11.6983975600       -4.1706350577       -1.5799630930
 H         12.5365410273       -2.9747209777       -2.5688756078
 H         11.5246180469        1.9005386389       -2.0424688242
 H          9.8106314936        1.5712397215       -2.3032007910
 H         10.9858790548        2.9977817402        0.1243829746
 H          9.2735663136        2.6588834398       -0.1274257683
 H          9.3009105999        4.0549715254       -2.1967920326
 H          9.8206929736        4.9869128213       -0.7923604481
 H         11.0145087641        4.3927981002       -1.9465937414
 H         13.5553870574        0.9339618058       -0.6811508424
 H         13.8060867331        0.6544617180        3.5882390254
 H         11.3874441790        0.1473863812        3.7275460181
 H          3.9151168323       -1.8075765122       -2.7870487456
 H          1.5785731264       -2.0752202521       -3.5495507051
 H         -1.0043306965       -2.1304842497       -3.8639750077
 H         -3.4641086637       -1.9508463936       -3.6918804804
 H         -7.8928707098       -1.5548307000       -3.2721728128
 H        -10.3345527181       -1.2493330227       -3.0272011791
 H         -7.2311729330        0.2080322372        0.5733491037
 H         -8.7823503007       -0.0507648346        2.6743356758
 H        -10.4307261931        0.3310748866        3.1754783896
 H        -11.2640094302       -1.6755906582        1.9606218488
 H         -9.6171870750       -2.0540089846        1.4553829090
 H        -10.2619026257       -3.3940627581        3.4433038649
 H         -8.9398326559       -2.2982171464        3.8462495903
 H        -10.5868812077       -1.9177519537        4.3517266680
 H        -10.2394798445        2.5534952535        2.1245332156
 H         -8.5882435916        2.1685720803        1.6360023365
 H        -10.8393650892        3.0001557310       -0.2477422137
 H         -9.1938684927        2.6013951214       -0.7413395309
 H         -9.9680924982        4.8862962610        1.1364820919
 H         -8.3214771542        4.4859128295        0.6456260537
 H         -9.4842160466        5.0580300592       -0.5507319322
 H        -12.6047303064        1.4374641586        2.1942253944
 H        -14.8410895137        0.0284990800       -1.1793239554
 H        -12.7555494541       -0.6946385945       -2.2986082006
 H         -3.1197947038       -0.2429982814        0.2192467237
