47
 energy: -72.812336275676 gnorm: 0.000060336167 xtb: 6.7.1 (edcfbbe)
C           -5.06826966400370       -2.66314380740684        0.13651178204952
C           -3.96589478610362       -3.44386916721558       -0.22291286012441
C           -2.71127723437776       -2.90110747768308       -0.26149637921405
C           -2.49193498370966       -1.52269684609898        0.04593116384475
C           -1.17716651466717       -1.04841889097735       -0.03286783898727
N           -0.11988023652990       -1.89173913854817       -0.10921765855212
C            0.96950976192914       -1.15814333924479       -0.03348035547191
C            2.32185415242270       -1.61181899394208       -0.00868717894104
C            2.61394748112579       -2.97659374506371       -0.00852944625707
C            3.92411715582890       -3.41296538735380        0.05441274232270
C            4.94282062514127       -2.47571893829605        0.12802896260363
C            4.66269743054777       -1.11898941516029        0.12216628319409
C            3.34993706586792       -0.64025168873911        0.04297643240023
C            3.02407764239482        0.77666568662171       -0.00711205944646
C            4.01678270720257        1.75039535487879       -0.06743209974124
C            3.73031785063183        3.10127624197164       -0.15167685588986
C            2.40001514037912        3.53049245919727       -0.20176954956312
C            1.38714324146719        2.61615662594996       -0.14064635265323
C            1.64841893884778        1.22239184934905       -0.02466350838956
C            0.65186869720946        0.25016533058081        0.03439762515988
N           -0.72383177535078        0.30063991408520        0.03681613165129
C           -1.55001734707910        1.43358738761561        0.00521791481910
C           -1.55366902707807        2.33489134512539        1.07116490063397
C           -2.38648725176355        3.43686363729124        1.03604204927077
C           -3.22019740957799        3.65039527118552       -0.05225433086602
C           -3.21850432245646        2.75463635580221       -1.11076082768311
C           -2.39008841144557        1.64887756403027       -1.08792156029646
C           -3.62502077506698       -0.75826527686050        0.44686531210426
C           -4.87273698630535       -1.32595673994794        0.48268015646007
H           -6.05730741458620       -3.09364648397239        0.16180344933491
H           -4.10927222573238       -4.48505210174656       -0.47399670503235
H           -1.85296415733310       -3.49021289621478       -0.54205075853132
H            1.78900196187070       -3.67084884380342       -0.05233825061695
H            4.14950392706047       -4.46855502651325        0.05314090846160
H            5.97115584030259       -2.80153350769318        0.18918435529943
H            5.49146104495827       -0.43251802039969        0.18422314256861
H            5.05462335963283        1.45824751463821       -0.06053015930623
H            4.53364863474898        3.82085841992291       -0.19394358242842
H            2.17516356102699        4.58278129113072       -0.29425969168616
H            0.36482967057302        2.94948811550555       -0.20165919836138
H           -0.90623906859046        2.15698615126276        1.91786401198278
H           -2.39005242053561        4.12871028937984        1.86518085182190
H           -3.87023162115464        4.51174742132932       -0.07350597992086
H           -3.86395577586899        2.91892901370831       -1.96065480811844
H           -2.38458962117068        0.94344616528782       -1.90591192636559
H           -3.50005468252287        0.26301742366785        0.76502814392157
H           -5.71723186817533       -0.72770014583693        0.79467270347909
