47
 energy: -72.812338683078 gnorm: 0.000044446489 xtb: 6.7.1 (edcfbbe)
C           -5.05676072353401       -2.69134674992197       -0.10240837027462
C           -3.94943798275361       -3.46077110585238        0.26608655863543
C           -2.69852862528759       -2.90920115638388        0.29993015799287
C           -2.48816838669881       -1.53262790496824       -0.02174454725104
C           -1.17660753547790       -1.04889670643666        0.05330125476376
N           -0.11414680263653       -1.88471460439432        0.14009735362498
C            0.97086558523712       -1.14519996742956        0.05941148356478
C            2.32616595690178       -1.59038603865065        0.04164648450283
C            2.62709765816311       -2.95315660111363        0.05447911439611
C            3.94022494350397       -3.38156960769753       -0.00177985783252
C            4.95300993137821       -2.43844401482692       -0.08151993145493
C            4.66409302459302       -1.08354704254116       -0.08859096134077
C            3.34808496878407       -0.61264870966338       -0.01671018159164
C            3.01302682794679        0.80252499925374        0.01986108956575
C            3.99921392181816        1.78322384859133        0.07412666344714
C            3.70370522889133        3.13280477858976        0.14668621076468
C            2.37049377703824        3.55375541857747        0.19030884516919
C            1.36376131483919        2.63237212386256        0.13420728282130
C            1.63448495383992        1.23947979838482        0.03014069669741
C            0.64450278978541        0.26026449570006       -0.02299879538473
N           -0.73145417558825        0.30212680628326       -0.02906729978914
C           -1.56309245227079        1.43146850771660       -0.01888285319334
C           -2.40906492161239        1.66061096565739        1.06684723942127
C           -3.24102844799753        2.76396748933622        1.06881248864966
C           -3.24035851396600        3.64355803166522       -0.00318801685018
C           -2.40074025539961        3.41618589610632       -1.08411495910756
C           -1.56436497280457        2.31646050282248       -1.09841449668737
C           -3.62606262151041       -0.78014509381961       -0.43159034092436
C           -4.86987911624033       -1.35660484928211       -0.46257499729847
H           -6.04286669521193       -3.12877002493728       -0.12395080488796
H           -4.08595991046193       -4.50012527571036        0.52829762755951
H           -1.83653368304340       -3.48957309331929        0.58733383497042
H            1.80661269623556       -3.65240351766147        0.10265297424894
H            4.17240956691356       -4.43563182849789        0.00938259456844
H            5.98358571340352       -2.75810555474030       -0.13729645616250
H            5.48855506119185       -0.39231116285629       -0.15491645774504
H            5.03895594234372        1.49783227908992        0.07198152127985
H            4.50221823592660        3.85796554021020        0.18479667781945
H            2.13861544902638        4.60527216240760        0.27384888770882
H            0.33913227492708        2.95943898920970        0.19025959472407
H           -2.40521220989615        0.96777505363354        1.89549379443632
H           -3.89122549299595        2.93912235957550        1.91289632093806
H           -3.89305519011138        4.50314218812685        0.00198241223067
H           -2.40242857693679        4.09518018900198       -1.92383614603134
H           -0.91165552588777        2.12809900023935       -1.93876188337826
H           -3.50770994026327        0.23871343472862       -0.75990496049134
H           -5.71812009483428       -0.76732055564944       -0.78143135479371
