47
 energy: -72.907832489827 gnorm: 0.000043132611 xtb: 6.7.1 (edcfbbe)
C           -5.11975419131060       -2.48247332758591       -0.01377322966547
C           -4.11999875748779       -3.17268572282801        0.65382525714774
C           -2.82135227524995       -2.70282334223286        0.63402307049414
C           -2.50293778215455       -1.52953306885849       -0.05192282388803
C           -1.11554113359781       -1.08895962164895       -0.04260169403560
N           -0.10537811785437       -1.92518149207153       -0.04140235068200
C            1.01641518532486       -1.15734819540300       -0.03280213335464
C            2.37113412937609       -1.59274970068569       -0.05855704179046
C            2.69646099537625       -2.95270938273826       -0.11380557540239
C            4.00903084428593       -3.35167786458249       -0.16240692449379
C            5.01674043472751       -2.38872520313386       -0.16099185052858
C            4.70880190462840       -1.04936180959714       -0.10296694001783
C            3.37956513778315       -0.60168562879054       -0.04290766966043
C            3.02331375207639        0.80413926812196        0.05179100561893
C            4.00153437865654        1.80557436580968        0.14033133259389
C            3.67640788270538        3.13550171207706        0.26829934110694
C            2.34192329208597        3.52469921894982        0.33005568787201
C            1.35296979042080        2.57595640362054        0.24130626583296
C            1.66221782121668        1.21693302780260        0.08411195032707
C            0.67615414433607        0.19400560656651       -0.01245003523814
N           -0.70107904621479        0.22386053768490       -0.03188153963447
C           -1.55810372215523        1.34674274689341       -0.02459738366789
C           -2.37748894655491        1.57896928355312        1.07325134579660
C           -3.23981178997267        2.66140951823891        1.06655685202788
C           -3.28660273490254        3.50896821231026       -0.02791596441763
C           -2.46856266058815        3.27553597670663       -1.12234415594240
C           -1.60555868771841        2.19472542688878       -1.12748555754869
C           -3.50913022092159       -0.85461506540410       -0.74059176353914
C           -4.80792526010141       -1.32948232595952       -0.71482443137109
H           -6.13636619599520       -2.84643335262438        0.00552978552388
H           -4.35448762164455       -4.07910479801980        1.19250840851933
H           -2.03182976939783       -3.23085047407757        1.14678042523646
H            1.88578649050269       -3.66556458979258       -0.12176300020934
H            4.26280227267607       -4.40079985793336       -0.20547375605159
H            6.05161815821064       -2.69674485848309       -0.20575213594652
H            5.52204976614003       -0.34114207247218       -0.10739890368518
H            5.04546048262693        1.53786276674422        0.11656824115150
H            4.45895636532935        3.87735310314656        0.33297529054803
H            2.08329332510514        4.56632316067496        0.45150065367890
H            0.32051628137248        2.87938540028843        0.30630245367111
H           -2.33368868295995        0.91006828577838        1.92025301387716
H           -3.87530050885115        2.84145397291606        1.92036142234230
H           -3.96096425873381        4.35173609547104       -0.02954982411924
H           -2.50436495738415        3.93308848043572       -1.97792493684298
H           -0.96436894499176        2.00074624714966       -1.97552747869799
H           -3.27887000451228        0.03009480275124       -1.31411120940143
H           -5.57935882465644       -0.79666349473906       -1.25142447250180
