69
 energy: -112.076525861614 gnorm: 0.000030552774 xtb: 6.7.1 (edcfbbe)
N          -10.49661828950077       -2.82845762539558        0.62826111499142
C           -9.46231868389206       -2.33813018920528        0.50822102509828
C           -8.19991466003219       -1.73886176501775        0.36237042486700
C           -7.66975972397278       -1.50712993783022       -0.91457854897755
C           -6.43075142068367       -0.92891884954578       -1.05139749596944
C           -5.68074850540896       -0.53763319678392        0.07152741608845
C           -4.38118439332327        0.08876224222022       -0.08178681042170
C           -4.10068180637874        1.32973919701333        0.57609902393875
C           -5.07991822637288        2.02334006307617        1.29303357099620
C           -4.78092383335169        3.18649065910152        1.99925805074034
C           -3.49043924131011        3.67355932739956        2.00239179174314
C           -2.51223538556342        3.04395912405182        1.23812570644454
C           -2.80170433918242        1.91204806608267        0.46750674500758
C           -1.83242416740218        1.33089944513020       -0.40389946433779
C           -0.53141930167361        1.97455434009221       -0.57836439450138
C           -0.44080135908297        3.30940888022316       -0.99121740149395
C            0.79053899129000        3.91518472340305       -1.16545119984438
C            1.95814947222570        3.21428177530317       -0.92848266550349
C            1.88766300062806        1.88169605100264       -0.51377296597873
C            3.10692031411167        1.14390374026469       -0.26986743906305
N            4.31852646553718        1.61100079317627       -0.37609206500518
C            5.13635378956572        0.56006025551204       -0.06654447195104
C            6.55707949622943        0.48029074967829       -0.01787891446249
C            7.36357458104335        1.58576242332195       -0.30735080449403
C            8.73169262995304        1.47981445591534       -0.25251360355744
C            9.31024616449466        0.26006847046076        0.09345729258003
C            8.52726562617932       -0.83419605588561        0.38005275528498
C            7.12562376040185       -0.76858993234425        0.33602770139293
C            6.28131527634336       -1.91376015812387        0.63550741275467
C            6.80137366298043       -3.16850602046917        0.98727477439889
C            5.98299351757271       -4.23916997682688        1.26579970419120
C            4.59617730726361       -4.11212391063588        1.20671781820792
C            4.04366782337155       -2.90249923521779        0.86697666660791
C            4.86707301241718       -1.80548607308648        0.58137978367840
C            4.34554322788035       -0.53909998335306        0.22376181918967
O            3.04948733256601       -0.16523232470579        0.09411968828793
C            0.64938035715425        1.27022841255008       -0.34395576187606
C           -2.13094889707885        0.12786051300004       -1.11096898476845
C           -1.23459316873979       -0.42833301482093       -2.03092527755156
C           -1.48107484416480       -1.65755329913584       -2.63567644332040
C           -2.62764336028606       -2.35760044159092       -2.32271493102200
C           -3.56780400316619       -1.79534645123854       -1.46193160972764
C           -3.37919469474453       -0.53114265183829       -0.89622673230312
C           -6.23021138981982       -0.76863999298718        1.34472582777429
C           -7.45863520567699       -1.36676855775512        1.49257021203143
H           -8.24680430960507       -1.78239322418573       -1.78574742798105
H           -6.04091479982259       -0.72818835816002       -2.03842135234133
H           -6.09580830653589        1.65992703401834        1.29663217916650
H           -5.56104445673387        3.69059834934152        2.54968032224061
H           -3.23526254372914        4.55055492681013        2.57821913211690
H           -1.50790156031013        3.43831918478291        1.24327901090698
H           -1.34756469074673        3.85655869233286       -1.20272852000190
H            0.83919431600971        4.94300676687757       -1.49299541724654
H            2.92715578246118        3.66820103439855       -1.05779446196568
H            6.87767625812196        2.51276298010466       -0.57135340717046
H            9.35653448241645        2.33183367094697       -0.47527693804178
H           10.38606704355032        0.17215783733253        0.13760435311250
H            9.01727483490069       -1.75759304126392        0.64337140183050
H            7.86787711992844       -3.31305179946381        1.04470607905503
H            6.42047458272617       -5.18986836324665        1.53316263963162
H            3.96396964284838       -4.95923573363388        1.42707546252011
H            2.97266307809984       -2.77193328133246        0.81244822824754
H            0.60471923790895        0.24768128180393        0.00105229337649
H           -0.33131043267200        0.10637454429466       -2.28111424039867
H           -0.76315383350097       -2.06191024099444       -3.33373307078820
H           -2.81083373092362       -3.33250896959103       -2.74902965500269
H           -4.45731726251098       -2.35811113157170       -1.22468341701947
H           -5.65323397247197       -0.51025141878740        2.22043413074980
H           -7.86118413335904       -1.55931457966846        2.47676540906986
