69
 energy: -112.144302402763 gnorm: 0.000077250888 xtb: 6.7.1 (edcfbbe)
N          -10.50461058177459       -2.76392858210019        0.60807439242778
C           -9.47161640798000       -2.27665221054501        0.48940744392707
C           -8.20239774428033       -1.67671590384344        0.34409418342140
C           -7.97439182254723       -0.76715199605277       -0.69126091204701
C           -6.73070665033686       -0.18525376416211       -0.82863196373822
C           -5.69972165176062       -0.49272836974406        0.05811630170045
C           -4.36980761551999        0.13526050456548       -0.09461204050491
C           -3.94167846484188        1.09401413207833        0.83499083071502
C           -4.76282297972496        1.50861408392806        1.91731139763432
C           -4.32797706808179        2.42791775089481        2.82188326911531
C           -3.04082931734983        2.99017124388418        2.70224196014063
C           -2.23088866990273        2.63637388134083        1.66727612688650
C           -2.65219720516013        1.69534343344812        0.69023709546100
C           -1.83443735170651        1.33899101306307       -0.39145544716872
C           -0.51076302613175        1.98136556276239       -0.55443105137659
C           -0.41948818893575        3.31523876399154       -0.94596576130091
C            0.81786421372205        3.91808249359144       -1.10480312372180
C            1.97719164017334        3.20322014952829       -0.87559544646944
C            1.89888142680230        1.86588703546849       -0.48298943552997
C            3.11380496555477        1.11685081440270       -0.25248236863708
N            4.32813639653447        1.57354332609794       -0.37251286375654
C            5.14036301625460        0.51691597013356       -0.06785330306878
C            6.56081476303596        0.42543684708154       -0.03507286373637
C            7.37304477868105        1.52287387888847       -0.33880389371238
C            8.74076985707034        1.40530920208516       -0.30080229838241
C            9.31310530674524        0.18176349574664        0.04211126877172
C            8.52443725326237       -0.90457192510402        0.34292957939012
C            7.12295043474519       -0.82674499798189        0.31722754184187
C            6.27246703939909       -1.96283973824119        0.63335589713959
C            6.78603930606452       -3.21938112086201        0.98824701010610
C            5.96205148181826       -4.28115064456063        1.28375209325475
C            4.57578063792045       -4.14281836046547        1.23960690114693
C            4.02956184859560       -2.93106071669767        0.89727243300763
C            4.85865081756680       -1.84299101805083        0.59451279328748
C            4.34353646374812       -0.57444307664547        0.23495134037074
O            3.04933735557034       -0.19022899124910        0.11696507310928
C            0.65318889291505        1.26086217150013       -0.32417826721577
C           -2.26592232598139        0.38555989231784       -1.32464696649324
C           -1.47043569545674        0.01931682545687       -2.44299925836458
C           -1.89227764652898       -0.92023267117201       -3.33274867938639
C           -3.13758778124933       -1.55699203132318       -3.15730140520271
C           -3.93818697851921       -1.22237699309930       -2.10876556919915
C           -3.54617922809185       -0.23262268948891       -1.16839940651328
C           -5.93693769224453       -1.39983925971341        1.08994332255019
C           -7.17466622911256       -1.99218238630751        1.23596821561679
H           -8.77419588479718       -0.52661293228356       -1.37644413646067
H           -6.55043689445455        0.51991046611577       -1.62659769945634
H           -5.74937376836938        1.07980096246329        2.01250252624753
H           -4.96458476433617        2.73185708970850        3.64002203275193
H           -2.70574297105660        3.70667518345965        3.43796610785098
H           -1.24580511452662        3.06890006763234        1.57437182799031
H           -1.32508828335573        3.87462778921539       -1.12981640472706
H            0.87553102038445        4.95210424042151       -1.41031686019229
H            2.95007050833776        3.65245735602148       -0.99435993292072
H            6.89164350879036        2.45284970693683       -0.60059158069338
H            9.37004310766090        2.25108147822934       -0.53459980427050
H           10.38860176776189        0.08452282411750        0.07233084053044
H            9.00981055550633       -1.83137401020560        0.60287422610965
H            7.85190131273112       -3.37227681956139        1.03502097680846
H            6.39460662812290       -5.23346869697585        1.55332370381006
H            3.93899756882838       -4.98283493291592        1.47351499688523
H            2.95916197821054       -2.79169803714256        0.85408770404453
H            0.59557581861091        0.22654401701802       -0.01785476462993
H           -0.51512909894726        0.50475847723061       -2.57724935642122
H           -1.27528597029646       -1.18764008058437       -4.17828497182497
H           -3.45087833718994       -2.31095327595072       -3.86473578245068
H           -4.89133746009058       -1.71269675371186       -1.97709573427593
H           -5.13874332475566       -1.64208095757026        1.77611079818922
H           -7.35749642208994       -2.69746760257851        2.03361106991133
