69
 energy: -112.144021750346 gnorm: 0.000063173136 xtb: 6.7.1 (edcfbbe)
N          -10.54153670857573       -3.02362097012220       -0.02106537779324
C           -9.52040751924630       -2.49854010342581       -0.01720746559649
C           -8.26368297649323       -1.85543160297244       -0.01259711107617
C           -8.19235104803082       -0.46059066450363       -0.02367387909626
C           -6.95990539150780        0.16093980915169       -0.01863323542298
C           -5.78689165818659       -0.59048867703192       -0.00306919280442
C           -4.46662801216651        0.08210795729350        0.00232086161906
C           -3.85781944110513        0.40531007315499        1.22157807302500
C           -4.47264749477405        0.10926025645194        2.46725126763075
C           -3.86848082390775        0.42927660437758        3.64401952858322
C           -2.60950179504542        1.06490893543991        3.64896235243644
C           -1.98709331051958        1.36695276718267        2.47690586962114
C           -2.58261795948577        1.05222049786047        1.22649811206603
C           -1.95403408016554        1.35821399081845        0.01289550764144
C           -0.63643625676032        2.03853622726207        0.01819171574017
C           -0.56464785375910        3.42891885825843        0.02886603845413
C            0.66493241147785        4.06812118752928        0.03262993376323
C            1.83374639083569        3.33243796079222        0.02604028149028
C            1.77347934501189        1.93781462556001        0.01581995328972
C            2.99884400447626        1.17072675970175        0.00889189666475
N            4.20632548194562        1.65988900332069        0.00323260398645
C            5.03398108620681        0.57179583154519       -0.00260010958162
C            6.45566683083093        0.49513278273435       -0.01132245385026
C            7.25163162546511        1.64518342089617       -0.01524454286779
C            8.62095483299040        1.54120512971596       -0.02461682262992
C            9.21135914201701        0.27884803628268       -0.03005855411436
C            8.43876363069391       -0.85941605240800       -0.02610627391276
C            7.03627646044970       -0.79750080226664       -0.01651192999044
C            6.20255974284263       -1.98867986792152       -0.01221304039201
C            6.73481101864679       -3.28684325463766       -0.01611524530891
C            5.92679092582875       -4.40065471974426       -0.01189437523932
C            4.53861327795624       -4.27543322401532       -0.00337721232220
C            3.97434153793692       -3.02424024154100        0.00059852885110
C            4.78704752146404       -1.88299920215766       -0.00369123654725
C            4.25319219672455       -0.57190231045035        0.00029403121589
O            2.95339131715348       -0.18826864821888        0.00746883574005
C            0.53571479573064        1.29642003595852        0.01189447040671
C           -2.56321125837848        1.03405257763857       -1.20589529364713
C           -1.94895594958182        1.33245683100917       -2.45124139075424
C           -2.55289111122300        1.01358082674552       -3.62848261246587
C           -3.81107346240742        0.37638758381465       -3.63418091658181
C           -4.43329068362236        0.07243849823657       -2.46256872554622
C           -3.83835887805539        0.38700073574642       -1.21176729371992
C           -5.86605602161425       -1.98143918312305        0.00761642020186
C           -7.09200384807083       -2.61556211093697        0.00317142048829
H           -9.10266932138905        0.12090807807556       -0.03587891745343
H           -6.89895440251922        1.23920807568110       -0.02680371204690
H           -5.43662848780117       -0.37849004575600        2.46386631769992
H           -4.34776760200150        0.19861351661212        4.58433046816543
H           -2.14485763641320        1.30981520322261        4.59300178516100
H           -1.02287712086681        1.85411136356034        2.47870311295981
H           -1.47816769677281        4.00531648604694        0.03379012487063
H            0.70839232647488        5.14698240019019        0.04067426363572
H            2.80103467528940        3.80898461474370        0.02868700554251
H            6.75664202303128        2.60435891466919       -0.01094933951592
H            9.23746984009035        2.42772137433950       -0.02776471026164
H           10.28817172755354        0.19238239710808       -0.03746120818173
H            8.93771795341089       -1.81496621334716       -0.03063623619038
H            7.80281954044274       -3.43142732412700       -0.02243963306201
H            6.37369930022166       -5.38395072354558       -0.01509394114020
H            3.91459143032016       -5.15660330045368       -0.00002093520657
H            2.90197855802495       -2.89388428385343        0.00714816453774
H            0.49142152433293        0.21714420879977        0.00370577276220
H           -0.98559335266678        1.82126589269511       -2.44495450024090
H           -2.07413020252635        1.24636907990175       -4.56853279583051
H           -4.27543785434702        0.13196213131994       -4.57849854224897
H           -5.39688243870315       -0.41608640948226       -2.46731589514757
H           -4.95684885106560       -2.56426570700940        0.01976585108814
H           -7.15502396613113       -3.69399789839737        0.01166208845154
