69
 energy: -112.076383432682 gnorm: 0.000064135263 xtb: 6.7.1 (edcfbbe)
N          -10.47921083136892       -2.84411690622891        0.44336414158670
C           -9.44855111486769       -2.33921927823269        0.35748717201240
C           -8.18989428490081       -1.72333671596069        0.25418700956199
C           -7.74078728331617       -1.23262288542665       -0.97976372008307
C           -6.50397531370180       -0.64137683043472       -1.07690530078241
C           -5.67711946159499       -0.49275923721701        0.05009334825933
C           -4.37832870446970        0.14576461293721       -0.05518354255822
C           -4.03920386545948        1.22766382857662        0.82019918354045
C           -4.96317180617099        1.76733947813761        1.71935292964886
C           -4.60568841478347        2.76761971002009        2.62135168393686
C           -3.31242586316000        3.24657037375030        2.63697664707103
C           -2.38993010992212        2.77646032648490        1.70653423013199
C           -2.73899803474560        1.81321316603324        0.75295203025535
C           -1.82530720053463        1.40011508785915       -0.26131761485057
C           -0.51668555277568        2.04698043457211       -0.36624310564383
C           -0.41235866149420        3.42902273728668       -0.55897802129817
C            0.82610457792041        4.03779823195154       -0.65940795253631
C            1.98552395933770        3.29210705622812       -0.55779978900141
C            1.89995322210939        1.91189861019856       -0.35713962705368
C            3.11074091262196        1.13296365455852       -0.22484555206131
N            4.32735102119318        1.59705025638706       -0.26797876951274
C            5.13315280154909        0.50877259994059       -0.07941725871417
C            6.55232041413601        0.41147547349888       -0.01855942347836
C            7.37143067279532        1.53462938792872       -0.17302165724578
C            8.73746052727476        1.41222588363809       -0.10254613058974
C            9.30124740092084        0.15830619495165        0.12539451183855
C            8.50581641977602       -0.95378524648306        0.27765255844146
C            7.10591951563527       -0.87262024671060        0.21123961307361
C            6.24860279451859       -2.03629975756052        0.36928664537387
C            6.75353209878866       -3.32486805064096        0.59967120303040
C            5.92301796360565       -4.41196681306957        0.74825625697742
C            4.53860045807248       -4.26847312929094        0.67278011181411
C            4.00069435294497       -3.02579562520855        0.44860277446572
C            4.83655177728490       -1.91146812916589        0.29807248384737
C            4.32999228545555       -0.60898919257324        0.07345283628484
O            3.03850979618229       -0.20974165665595       -0.02136686633829
C            0.65442990149534        1.29698354175436       -0.27181596666531
C           -2.17954183523178        0.35990825955544       -1.17039058763356
C           -1.33032468120117       -0.02388811632134       -2.21479294533329
C           -1.63373115024234       -1.10308876023932       -3.04005863747383
C           -2.78964362172220       -1.82466835276537       -2.82687310569673
C           -3.68030440796808       -1.42766947031030       -1.83142736393492
C           -3.43389981850341       -0.30796513768865       -1.03203941604929
C           -6.14632471321702       -0.98021283460464        1.28214396213926
C           -7.37144182184796       -1.59423117812341        1.38504737483266
H           -8.37796393381274       -1.31981621114823       -1.84818080817961
H           -6.17534584412329       -0.24183209631309       -2.02498418809832
H           -5.98166922961585        1.41131355244230        1.71542164021841
H           -5.34366499666051        3.15290648366283        3.30880678212129
H           -3.01230620613897        3.99596570987933        3.35399172300799
H           -1.38250862688051        3.16270622991730        1.72422997770403
H           -1.31398151499644        4.01598826354586       -0.65378204328522
H            0.88588391719377        5.10403711339201       -0.81944877274467
H            2.96015609590805        3.74772763127644       -0.62565669780399
H            6.89681218506509        2.48839470598717       -0.34659867039693
H            9.37188355295629        2.27792388075146       -0.22124683717219
H           10.37528986698377        0.05762562717556        0.18304887821986
H            8.98471624257900       -1.90374270470289        0.45172055402472
H            7.81763777523839       -3.48316576749230        0.66468212268391
H            6.34911729853537       -5.38849333196439        0.92571743795150
H            3.89689422637970       -5.12887957201507        0.79023811958261
H            2.93196144714475       -2.88151418200499        0.38538893812414
H            0.59710744670361        0.23244456092999       -0.09824030819040
H           -0.41893113513194        0.52781771254321       -2.38665140064536
H           -0.95256076983163       -1.37714199619848       -3.83199830235151
H           -3.01808029078031       -2.68944668165307       -3.43166485805395
H           -4.57546801909862       -2.00898381423141       -1.67362801530112
H           -5.50975034664155       -0.90853884309351        2.15177163274745
H           -7.71203424896937       -1.98604652450865        2.33276562930851
