  56
        -94.91841008
 O          3.3778019879        3.4570923234        0.8573196021
 S          3.2135192622        2.4174407029       -0.1306119151
 O          3.5495697269        2.7754658235       -1.4919568765
 C          4.1771579538        0.9867508763        0.3208078841
 C          5.5021097648        1.1948170507        0.6565598479
 C          6.3367915662        0.1266657625        0.9203402733
 C          5.8221002126       -1.1585923262        0.8247675146
 C          4.4991920876       -1.3701151440        0.4996192055
 C          3.6309617730       -0.2942811725        0.2507636608
 N          2.3003834633       -0.5370071706       -0.0359094576
 C          1.8904377473       -1.8985171451       -0.2056944178
 C          1.8380160230       -2.4360440819       -1.4840688268
 C          1.4057975550       -3.7390902066       -1.6637440868
 C          1.0260988249       -4.5021388198       -0.5723226519
 C          1.0836144948       -3.9658606047        0.7038175096
 C          1.5157191027       -2.6648909975        0.8914923512
 C          1.3029899634        0.4238737507       -0.1057769094
 C         -0.0283396099        0.0087252443       -0.1720194818
 C         -1.0870102114        0.9109925544       -0.2531994676
 N         -2.3852060596        0.4456585606       -0.3293146951
 C         -2.6993782619       -0.9295264276       -0.2869035851
 C         -2.1738100781       -1.8254464989       -1.2134225154
 C         -2.4616469011       -3.1747788088       -1.1212905559
 C         -3.3032287008       -3.6425975681       -0.1244536152
 C         -3.8868939326       -2.7542657947        0.7596241852
 C         -3.5906018813       -1.4025021401        0.6740899310
 S         -4.3613824212       -0.2534102440        1.7825921148
 C         -4.5106816530        1.0925170791        0.6364793779
 C         -5.6250490332        1.9155108199        0.6782791846
 C         -5.7506952171        2.9463691290       -0.2346021008
 C         -4.7813694519        3.1314409658       -1.2078312512
 C         -3.6728924395        2.3056621463       -1.2546502499
 C         -3.5079967531        1.2990234405       -0.3088112861
 C         -0.8047293214        2.2832316393       -0.1790163018
 C          0.5048175452        2.6984988388       -0.1057121880
 C          1.5529095541        1.7944611749       -0.0956331162
 H          5.8510340096        2.2146277463        0.6983973764
 H          7.3697708296        0.2883147321        1.1830496470
 H          6.4596803026       -2.0100594617        1.0095136212
 H          4.1261483272       -2.3803372766        0.4354129043
 H          2.1329237378       -1.8273884271       -2.3259650275
 H          1.3660682571       -4.1567244982       -2.6585040078
 H          0.6868861257       -5.5169517344       -0.7146210192
 H          0.7890869529       -4.5596879003        1.5557057288
 H          1.5607715030       -2.2330857408        1.8804778402
 H         -0.2443110669       -1.0442132508       -0.1354941244
 H         -1.5313771900       -1.4547069467       -1.9979607757
 H         -2.0294474012       -3.8598870824       -1.8341706935
 H         -3.5224301331       -4.6960985802       -0.0481503202
 H         -4.5673335991       -3.0953695702        1.5242956228
 H         -6.3794285775        1.7425652961        1.4300924143
 H         -6.6124179368        3.5941404060       -0.1957300890
 H         -4.8895929959        3.9187143289       -1.9377102700
 H         -2.9227189317        2.4353685387       -2.0200946772
 H         -1.5989265814        3.0097803149       -0.1590109640
 H          0.7508430747        3.7472131522       -0.0559438826
