  54
        -83.59187055
 N          4.9026589294       -2.5777069456        1.2451288359
 C          5.0995717298       -1.5164410031        0.8315632134
 C          5.3798084419       -0.2428096727        0.3396676912
 C          4.3495551428        0.7532931586        0.2934678789
 C          2.9832433167        0.5663595293        0.2005483477
 C          2.3592859490       -0.7026007543       -0.0291285316
 C          1.0083593202       -0.8278139393       -0.0900508532
 C          0.1558571058        0.2954363730        0.0590571138
 C         -1.2532262736        0.1980032564        0.0189935690
 N         -2.0959139743        1.2258147788        0.0936159780
 C         -3.3413185798        0.7311793652        0.0170115365
 C         -4.4934875106        1.6183946831       -0.0059214553
 C         -5.6290461957        1.3225980857       -0.7598480072
 C         -6.6991614454        2.1962906755       -0.7753045609
 C         -6.6513092606        3.3737060880       -0.0458642247
 C         -5.5182685545        3.6834987166        0.6895677637
 C         -4.4432360566        2.8164946193        0.7058882758
 C         -3.2935503222       -0.6722194994       -0.0938535153
 C         -4.3202737666       -1.6862625461       -0.1189270805
 C         -5.5199693002       -1.5072927664        0.5782990975
 C         -6.4879296215       -2.4903244351        0.5651018167
 C         -6.2828245564       -3.6683735610       -0.1376405939
 C         -5.0952369073       -3.8599891343       -0.8256021316
 C         -4.1193833470       -2.8833330266       -0.8145115327
 N         -1.9621747462       -0.9741517153       -0.1108419637
 C          0.7598496502        1.5674240693        0.2447186411
 C          2.1076032974        1.6992588249        0.3041197437
 C          6.7343196306        0.0359845323       -0.0262044474
 C          7.7638642763       -0.8807997023        0.2812463796
 C          9.0686633369       -0.6224176407       -0.0663638194
 C          9.3999423995        0.5482044313       -0.7391622614
 C          8.3999562885        1.4557568764       -1.0658822895
 C          7.0906286469        1.2108876253       -0.7209441039
 H          4.6924999976        1.7773454503        0.3687272756
 H          2.9829554038       -1.5710730166       -0.1643606938
 H          0.5825765485       -1.8054154896       -0.2684399513
 H         -5.6638571080        0.4155530179       -1.3453639021
 H         -7.5738073833        1.9605872397       -1.3639388229
 H         -7.4920455844        4.0516198521       -0.0583820417
 H         -5.4739941294        4.6065527230        1.2489187404
 H         -3.5509890936        3.0465243224        1.2669442119
 H         -5.6740833566       -0.5991342232        1.1407031610
 H         -7.4078794037       -2.3407514494        1.1104114918
 H         -7.0437723058       -4.4338975183       -0.1474102759
 H         -4.9306316581       -4.7748759271       -1.3755796466
 H         -3.2072135113       -3.0335289930       -1.3750307276
 H         -1.5785312415       -1.9039033544       -0.1303838483
 H          0.1041344997        2.4188515181        0.3363698893
 H          2.5527214460        2.6730720857        0.4507032971
 H          7.5133180128       -1.7900288769        0.8075885909
 H          9.8409760909       -1.3346147146        0.1849459383
 H         10.4252315973        0.7478126244       -1.0113509718
 H          8.6511645009        2.3607754043       -1.6002219286
 H          6.3264238233        1.9176756947       -1.0062109656
  54
        -83.59178892
 N          4.9910439658       -2.5322791767       -1.4204795879
 C          5.1518958658       -1.4882966517       -0.9506351873
 C          5.3892756916       -0.2362099303       -0.3870530246
 C          4.3463272651        0.7478071036       -0.3495868269
 C          2.9795252165        0.5479262192       -0.3114815416
 C          2.3558704690       -0.7341361436       -0.1712128049
 C          1.0044888984       -0.8645576807       -0.1270525285
 C          0.1517556181        0.2651567255       -0.2046982242
 C         -1.2569327109        0.1717163902       -0.1396002066
 N         -2.0930266250        1.2060080020       -0.1786752671
 C         -3.3405626409        0.7208957467       -0.0738199752
 C         -4.4863929996        1.6129570442       -0.1474718025
 C         -4.3500214563        2.9230719656        0.3119230994
 C         -5.4134319058        3.8014100064        0.2446695618
 C         -6.6233789626        3.3890921976       -0.2908717016
 C         -6.7594755111        2.0963836031       -0.7714447407
 C         -5.7001413035        1.2116529236       -0.7050077260
 C         -3.2988326681       -0.6814868161        0.0490747796
 C         -4.3196032584       -1.6775334531        0.2752176524
 C         -4.1776179015       -2.9695264216       -0.2415075751
 C         -5.1434831556       -3.9280758717       -0.0070497797
 C         -6.2607545204       -3.6221327220        0.7534779858
 C         -6.4063750735       -2.3472289501        1.2797830750
 C         -5.4485935785       -1.3818374920        1.0464656823
 N         -1.9719889133       -0.9970672328       -0.0165717638
 C          0.7541344006        1.5451310572       -0.3288309903
 C          2.1017778520        1.6820097703       -0.3744023159
 C          6.7162718593        0.0378487334        0.0710075150
 C          7.7717224453       -0.8589344053       -0.2068830316
 C          9.0491540852       -0.6068475006        0.2346472981
 C          9.3264125472        0.5377415420        0.9736778696
 C          8.2998164406        1.4258597876        1.2703045931
 C          7.0174771072        1.1866674760        0.8327435315
 H          4.6818987243        1.7769864820       -0.3663280415
 H          2.9798028019       -1.6092147816       -0.0916176095
 H          0.5788849262       -1.8526682758       -0.0201763125
 H         -3.3997668831        3.2287994850        0.7210543339
 H         -5.3010605398        4.8118586823        0.6096164862
 H         -7.4560713969        4.0750926396       -0.3415338967
 H         -7.6960876855        1.7776269375       -1.2053163162
 H         -5.8062520157        0.2123247137       -1.1008200071
 H         -3.3216887347       -3.2124089096       -0.8556809316
 H         -5.0259358446       -4.9188193019       -0.4207280227
 H         -7.0135628720       -4.3738144603        0.9364219111
 H         -7.2710432099       -2.1070968334        1.8803756144
 H         -5.5545604443       -0.3953761913        1.4713951781
 H         -1.5916026621       -1.9238281392        0.0758169869
 H          0.0969765770        2.3984215797       -0.3854385590
 H          2.5455353722        2.6626224695       -0.4705630052
 H          7.5631770103       -1.7486382522       -0.7824615245
 H          9.8422002256       -1.3037352933        0.0057453904
 H         10.3303653672        0.7325979375        1.3190552666
 H          8.5081200750        2.3105443452        1.8549433264
 H          6.2307636609        1.8766358355        1.0967521138
  54
        -83.59177911
 N          4.8817070529       -2.4550395255       -1.4195585147
 C          5.0790062516       -1.4392512894       -0.9047145716
 C          5.3704382601       -0.2216823310       -0.2916771157
 C          4.3380854862        0.7355274650       -0.0392093844
 C          2.9728252991        0.5323519987        0.0480197673
 C          2.3441046806       -0.7551179983        0.0668428289
 C          0.9927197212       -0.8838920107        0.0986873733
 C          0.1435879081        0.2523860882        0.1272482642
 C         -1.2647620150        0.1603678930        0.1135781059
 N         -2.0989810587        1.1985282518        0.1315489135
 C         -3.3484835918        0.7129073229        0.0838274185
 C         -4.4861503987        1.6153215373        0.0072201111
 C         -5.6347827689        1.2909837501       -0.7145013945
 C         -6.6841664225        2.1867324562       -0.7882725808
 C         -6.6023775836        3.4146357167       -0.1509359460
 C         -5.4560164685        3.7518301028        0.5511540889
 C         -4.4021829374        2.8625153612        0.6261895783
 C         -3.3142320270       -0.6961686850        0.0505425042
 C         -4.3487757377       -1.7016126069        0.0714187506
 C         -5.5518730722       -1.4791635300        0.7507068644
 C         -6.5277784678       -2.4539402654        0.7788811747
 C         -6.3278146778       -3.6668405513        0.1363102087
 C         -5.1371426984       -3.9015702830       -0.5329816578
 C         -4.1532793779       -2.9335904832       -0.5629184891
 N         -1.9855477633       -1.0108505705        0.0522822154
 C          0.7533307416        1.5355931430        0.1708229965
 C          2.1012169681        1.6696661153        0.1440392553
 C          6.7503264895        0.0534148129       -0.0209861784
 C          7.1490859270        1.1244563735        0.8050437614
 C          8.4815575574        1.3725514824        1.0436606918
 C          9.4638645174        0.5707336114        0.4760999728
 C          9.0920281769       -0.5002930593       -0.3281840818
 C          7.7639062822       -0.7618344881       -0.5700781901
 H          4.6742990359        1.7603800122        0.0515396274
 H          2.9644698816       -1.6361347621        0.0611281006
 H          0.5627740561       -1.8758244805        0.1084542625
 H         -5.6953661934        0.3450336898       -1.2322458418
 H         -7.5690458266        1.9286367482       -1.3517129055
 H         -7.4267993243        4.1099240204       -0.2094997499
 H         -5.3853676086        4.7126919754        1.0395471543
 H         -3.5005344258        3.1115204292        1.1636624767
 H         -5.7021096029       -0.5433806760        1.2670957562
 H         -7.4501813443       -2.2705019107        1.3095436351
 H         -7.0953290973       -4.4255038832        0.1581482112
 H         -4.9765804396       -4.8434940078       -1.0364962622
 H         -3.2391586124       -3.1184824193       -1.1096824913
 H         -1.6101404450       -1.9439521888        0.0684559963
 H          0.1003102318        2.3927631617        0.2156358354
 H          2.5501343010        2.6524001683        0.1683502995
 H          6.4030116059        1.7438244163        1.2791155391
 H          8.7651323293        2.1966384241        1.6826055809
 H         10.5072643640        0.7746956857        0.6630489282
 H          9.8507478326       -1.1306513688       -0.7684640928
 H          7.4821812490       -1.5914551760       -1.2016229959
  54
        -83.59167223
 N          5.0165627460       -2.4165303348       -1.6526199402
 C          5.1729197995       -1.4105487930       -1.1053518257
 C          5.3925658023       -0.2042626021       -0.4443927728
 C          4.3527512755        0.7863930555       -0.4009129962
 C          2.9863427145        0.5851055730       -0.3859354655
 C          2.3677729677       -0.7023722674       -0.2790121631
 C          1.0167520252       -0.8379629622       -0.2328494621
 C          0.1609545601        0.2905198642       -0.2788192537
 C         -1.2473182049        0.1903570632       -0.1939677482
 N         -2.0883361762        1.2206556016       -0.1958408610
 C         -3.3316664521        0.7265865519       -0.0754674524
 C         -4.4853198473        1.6112802964       -0.1055919645
 C         -5.7055102521        1.2119161082       -0.6502444547
 C         -6.7747220040        2.0867668993       -0.6737569861
 C         -6.6423420101        3.3678074323       -0.1620068960
 C         -5.4265076433        3.7787025397        0.3610302006
 C         -4.3530195121        2.9102601855        0.3849415973
 C         -3.2802710965       -0.6768404058        0.0184648671
 C         -4.2909683579       -1.6837782461        0.2446532526
 C         -5.4036605510       -1.4124262966        1.0474616498
 C         -6.3506606845       -2.3887639849        1.2798432608
 C         -6.2098933600       -3.6503405475        0.7211372876
 C         -5.1085034532       -3.9320301761       -0.0712174528
 C         -4.1535046238       -2.9623754431       -0.3049823585
 N         -1.9535546324       -0.9840186790       -0.0800401139
 C          0.7577018005        1.5739930351       -0.3856065326
 C          2.1051073901        1.7168149693       -0.4318483295
 C          6.6899144295        0.0254061447        0.1085934186
 C          7.7568251707       -0.8586268156       -0.1651060937
 C          9.0050693385       -0.6464911628        0.3710610478
 C          9.2387282712        0.4419560101        1.2040660667
 C          8.1987077313        1.3152309746        1.4980092380
 C          6.9457843600        1.1169652996        0.9653690534
 H          4.6932117343        1.8143166210       -0.3865704998
 H          2.9953399869       -1.5769830412       -0.2226429995
 H          0.5947927982       -1.8297241945       -0.1477125120
 H         -5.8092595383        0.2215649359       -1.0685674077
 H         -7.7164486789        1.7691864567       -1.0973016306
 H         -7.4825619305        4.0463098980       -0.1792608628
 H         -5.3171954452        4.7806654688        0.7496249481
 H         -3.3984736807        3.2154079072        0.7844653047
 H         -5.5052428224       -0.4366893256        1.4976842993
 H         -7.2025728800       -2.1678775632        1.9056236043
 H         -6.9543353312       -4.4105768560        0.9035148300
 H         -4.9948768505       -4.9121267551       -0.5106531071
 H         -3.3104415652       -3.1855810122       -0.9438809590
 H         -1.5668087618       -1.9103585557       -0.0134733662
 H          0.0973985172        2.4257826763       -0.4267680202
 H          2.5455211254        2.7002497292       -0.5135617029
 H          7.5808054026       -1.7041010454       -0.8139004058
 H          9.8092969882       -1.3308753588        0.1435586451
 H         10.2196515538        0.6047737336        1.6240902373
 H          8.3734076123        2.1553404383        2.1547233317
 H          6.1443769081        1.7917111147        1.2252393655
  54
        -83.59162538
 N          4.8867854838       -2.7379772736        0.6527914658
 C          5.0754112528       -1.6203450332        0.4263060513
 C          5.3681948888       -0.2851050996        0.1504717149
 C          4.3331571359        0.6966931141        0.0713874706
 C          2.9684838003        0.5178054265       -0.0697744278
 C          2.3297033447       -0.7411956730       -0.3153756565
 C          0.9773767430       -0.8535694840       -0.3615954488
 C          0.1352359378        0.2754271930       -0.1880393052
 C         -1.2724912779        0.1860345978       -0.1617141147
 N         -2.1059866233        1.2200359812       -0.0578080505
 C         -3.3550754425        0.7311192447       -0.0402166228
 C         -4.4989583623        1.6278174534       -0.0069614338
 C         -5.7000611563        1.3128065181       -0.6425343630
 C         -6.7587202859        2.1998465430       -0.6051539271
 C         -6.6347866637        3.4100912931        0.0586637154
 C         -5.4373373954        3.7390959432        0.6741879492
 C         -4.3741858601        2.8585448598        0.6379133590
 C         -3.3202445789       -0.6765511651       -0.1187304267
 C         -4.3452817486       -1.6883196644       -0.0350837479
 C         -5.4875252216       -1.4874809926        0.7483173749
 C         -6.4482684957       -2.4725753474        0.8467475006
 C         -6.2937413719       -3.6745685722        0.1718469934
 C         -5.1639989401       -3.8872353717       -0.6022523104
 C         -4.1951592128       -2.9089204794       -0.7029188868
 N         -1.9940023136       -0.9856663554       -0.2203425073
 C          0.7552462385        1.5448349727       -0.0265684830
 C          2.1038562581        1.6618745990        0.0222664646
 C          6.7570875483        0.0553101584        0.0405285694
 C          7.7505214853       -0.8747401167        0.4189709391
 C          9.0865020212       -0.5602027129        0.3372456939
 C          9.4896790573        0.6850285511       -0.1309810806
 C          8.5300398367        1.6073634243       -0.5286492647
 C          7.1896835921        1.3048932322       -0.4499898923
 H          4.6642911866        1.7207875957        0.1826765204
 H          2.9424401692       -1.6140474005       -0.4671609184
 H          0.5402259567       -1.8251545351       -0.5455312761
 H         -5.7959606338        0.3809839904       -1.1802839398
 H         -7.6848479047        1.9485207228       -1.1012948783
 H         -7.4672131726        4.0976351198        0.0890339529
 H         -5.3354267962        4.6855421820        1.1848227180
 H         -3.4353938868        3.0990922252        1.1115495400
 H         -5.6004580948       -0.5612880324        1.2907685591
 H         -7.3219238054       -2.3065144375        1.4592829913
 H         -7.0483013959       -4.4423371947        0.2511512690
 H         -5.0389984767       -4.8206815328       -1.1310452344
 H         -3.3300631144       -3.0768267213       -1.3291732109
 H         -1.6171582499       -1.9182227591       -0.2379450312
 H          0.1095623183        2.4041155122        0.0638477922
 H          2.5595657802        2.6328100669        0.1557538142
 H          7.4465882104       -1.8422022597        0.7905210019
 H          9.8268502603       -1.2860451947        0.6407489949
 H         10.5390631151        0.9312723349       -0.1902189388
 H          8.8378053919        2.5722225961       -0.9059683793
 H          6.4670849805        2.0311652111       -0.7894699720
  54
        -83.59152338
 N          5.0749632533       -2.6199956997       -1.3090992905
 C          5.2091775596       -1.5488810054       -0.8958057559
 C          5.4000584658       -0.2607620136       -0.4016169290
 C          4.3578749566        0.7194666773       -0.5443226422
 C          2.9923628969        0.5150739097       -0.5279853219
 C          2.3757504917       -0.7462286797       -0.2446366881
 C          1.0246061180       -0.8769541208       -0.1850284929
 C          0.1675191651        0.2320381378       -0.3919182398
 C         -1.2402618323        0.1462818515       -0.2814439744
 N         -2.0773557338        1.1745497548       -0.3843570138
 C         -3.3188543365        0.7055259640       -0.1773144099
 C         -4.4526839636        1.6156495789       -0.1361479448
 C         -5.5311120829        1.4036892194        0.7222858030
 C         -6.5768155428        2.3058918500        0.7592827633
 C         -6.5605969335        3.4292700230       -0.0519273788
 C         -5.4834692458        3.6558759611       -0.8938385904
 C         -4.4331468661        2.7599199858       -0.9328937510
 C         -3.2735305723       -0.6831039345        0.0471852721
 C         -4.3015987834       -1.6771055010        0.2468733322
 C         -4.0511478863       -2.8076096105        1.0315685498
 C         -5.0298272136       -3.7638406658        1.2164349321
 C         -6.2704554977       -3.6178489519        0.6169128938
 C         -6.5259168454       -2.5066676863       -0.1726422962
 C         -5.5548130379       -1.5444899337       -0.3599017697
 N         -1.9466111350       -1.0012208008       -0.0084545021
 C          0.7619822001        1.4865552674       -0.6864909547
 C          2.1093477897        1.6242361419       -0.7489689036
 C          6.6675748581        0.0523239166        0.1776908220
 C          7.7428844338       -0.8598727691        0.0965979820
 C          8.9609670597       -0.5676347292        0.6632001111
 C          9.1551105801        0.6329581820        1.3370431040
 C          8.1059260583        1.5381269540        1.4402129687
 C          6.8828632593        1.2598983063        0.8753561904
 H          4.6963513071        1.7394981207       -0.6768320577
 H          3.0048626325       -1.6026862881       -0.0636491503
 H          0.6036349777       -1.8471461620        0.0395019851
 H         -5.5392502412        0.5409123987        1.3720169459
 H         -7.4070108196        2.1352690266        1.4291309653
 H         -7.3815927834        4.1303333708       -0.0206148403
 H         -5.4633613090        4.5364538377       -1.5190715202
 H         -3.5841899878        2.9253618479       -1.5776615837
 H         -3.0953163499       -2.9203190784        1.5240715763
 H         -4.8251760334       -4.6269116737        1.8327215210
 H         -7.0338758892       -4.3668427563        0.7631885685
 H         -7.4884235859       -2.3933152482       -0.6488265335
 H         -5.7495038055       -0.6896579222       -0.9893576832
 H         -1.5696565408       -1.9309472035        0.0664405297
 H          0.1005384241        2.3226775024       -0.8494116139
 H          2.5482995694        2.5863790442       -0.9712654052
 H          7.5970145510       -1.7934384751       -0.4267908475
 H          9.7719121145       -1.2768581547        0.5856090591
 H         10.1122811235        0.8582801160        1.7820912172
 H          8.2495093440        2.4671467265        1.9730975438
 H          6.0727297807        1.9641078937        0.9868724377
  54
        -83.59073058
 N          4.8580382128        1.8096444253        2.3886307342
 C          5.0670467796        1.0762577448        1.5206018401
 C          5.3652059963        0.1942709674        0.4838122955
 C          4.3778984227       -0.7455427266        0.0349560993
 C          3.0027415622       -0.6142568997        0.0548638629
 C          2.3083877115        0.5871628485        0.4126991027
 C          0.9532345458        0.6514118360        0.3886829390
 C          0.1638762574       -0.4636475414        0.0037206590
 C         -1.2440905888       -0.3383090705       -0.0149007601
 N         -1.9158763453        0.7677355858        0.2927764805
 C         -3.2229696508        0.5015130379        0.1437372976
 C         -4.2140196806        1.5474544143        0.3420561450
 C         -3.9621316086        2.5454815851        1.2832692310
 C         -4.8740329918        3.5633901645        1.4822257343
 C         -6.0421487435        3.6064579300        0.7376895369
 C         -6.2883499983        2.6313995554       -0.2159292689
 C         -5.3820808793        1.6079515919       -0.4173667512
 C         -3.3953220144       -0.8358744201       -0.2620525139
 C         -4.5658348452       -1.6491782864       -0.4899332947
 C         -4.5377597622       -2.6834647066       -1.4316868705
 C         -5.6516444193       -3.4717045757       -1.6416665942
 C         -6.8097920952       -3.2519906573       -0.9130561190
 C         -6.8456682498       -2.2363913683        0.0307826748
 C         -5.7381695712       -1.4418073729        0.2448357502
 N         -2.1269734393       -1.3318293573       -0.3707041113
 C          0.8354968437       -1.6575518392       -0.3633619941
 C          2.1907350203       -1.7270896507       -0.3460894926
 C          6.6958991950        0.2109345978       -0.0381782937
 C          7.7110624568        0.9563552465        0.6009679256
 C          8.9926127995        0.9766302744        0.1033238307
 C          9.3124635008        0.2686871758       -1.0497528921
 C          8.3242607532       -0.4568048261       -1.7037936936
 C          7.0388609476       -0.4888584607       -1.2143800970
 H          4.7710452047       -1.6777451816       -0.3515567198
 H          2.8832745899        1.4538721805        0.6950674373
 H          0.4316897389        1.5572968263        0.6534368827
 H         -3.0452538263        2.5006443621        1.8498163087
 H         -4.6750398580        4.3275930257        2.2189980819
 H         -6.7563399051        4.4014202908        0.8944513609
 H         -7.1900673392        2.6720809848       -0.8096589921
 H         -5.5695401249        0.8623054140       -1.1761989347
 H         -3.6482210388       -2.8480699946       -2.0240723160
 H         -5.6180612061       -4.2605666322       -2.3789578768
 H         -7.6792079648       -3.8699298584       -1.0788790432
 H         -7.7432349441       -2.0672325023        0.6068981673
 H         -5.7627400378       -0.6635737263        0.9922308793
 H         -1.8959680346       -2.2835532129       -0.6001623793
 H          0.2658364535       -2.5260104647       -0.6652232899
 H          2.6890892455       -2.6435299780       -0.6298628709
 H          7.4685954932        1.5055843936        1.4988171173
 H          9.7558481857        1.5470118720        0.6121543985
 H         10.3195219042        0.2871465753       -1.4379590713
 H          8.5653774031       -0.9970212610       -2.6081280723
 H          6.2796089267       -1.0363658914       -1.7518759368
  54
        -83.59067943
 N          7.3901708324        0.6880577694       -2.7821190330
 C          6.5953274790        0.6155901324       -1.9474725550
 C          5.6355792709        0.5746591055       -0.9390035615
 C          4.5205942526        1.4792029992       -1.1056352311
 C          3.1857635842        1.1725437973       -0.9279177973
 C          2.7147728510       -0.1508562345       -0.6505038361
 C          1.3936407882       -0.4029774519       -0.4435008930
 C          0.4326620956        0.6313976393       -0.5016995270
 C         -0.9534976817        0.4101458342       -0.2852725306
 N         -1.8852768076        1.3538410713       -0.3027334646
 C         -3.0674806409        0.7581133719       -0.0562818996
 C         -4.2833068207        1.5480507792        0.0622084807
 C         -4.3970025702        2.7300765430       -0.6688674975
 C         -5.5321775988        3.5099134156       -0.5643868821
 C         -6.5644616906        3.1271844966        0.2771294442
 C         -6.4494959790        1.9654279816        1.0237437145
 C         -5.3172335304        1.1799725269        0.9223951961
 C         -2.8764455226       -0.6222682788        0.1092175916
 C         -3.7904410517       -1.7269177958        0.3016203207
 C         -5.0576481236       -1.7154459564       -0.2878755312
 C         -5.9145614836       -2.7843169976       -0.1200882691
 C         -5.5274536557       -3.8821966198        0.6333575242
 C         -4.2714481124       -3.9064513086        1.2173334713
 C         -3.4066513311       -2.8422825856        1.0511462866
 N         -1.5291053765       -0.8073837682       -0.0213345132
 C          0.8786965236        1.9397190844       -0.8108640334
 C          2.1931750776        2.1991009694       -1.0313543914
 C          5.8356168910       -0.2786002958        0.1813048775
 C          6.8472690936       -1.2647191077        0.1605709917
 C          7.0356452035       -2.0998841802        1.2359000264
 C          6.2399824550       -1.9784792301        2.3704987471
 C          5.2566180981       -0.9975885017        2.4196277972
 C          5.0543416069       -0.1547249921        1.3516643311
 H          4.7660482435        2.4689190487       -1.4724690401
 H          3.4266432363       -0.9618329803       -0.6278635078
 H          1.0818988381       -1.4181217088       -0.2390443746
 H         -3.5825833969        3.0167983697       -1.3157313063
 H         -5.6142741932        4.4207819783       -1.1393261733
 H         -7.4527959529        3.7361924329        0.3581996602
 H         -7.2449591959        1.6730390454        1.6937995321
 H         -5.2247589823        0.2873460941        1.5236464154
 H         -5.3536568588       -0.8685724027       -0.8881081542
 H         -6.8890781098       -2.7652903146       -0.5848241702
 H         -6.2009706995       -4.7156925279        0.7635234453
 H         -3.9659497713       -4.7575079926        1.8081997873
 H         -2.4388821921       -2.8598173042        1.5331108670
 H         -1.0629272903       -1.6985850713        0.0043688043
 H          0.1337898840        2.7175745024       -0.8672300146
 H          2.5199161660        3.2004100390       -1.2712056832
 H          7.4633588784       -1.3608910941       -0.7216589872
 H          7.8084780318       -2.8536592446        1.2005291364
 H          6.3948081702       -2.6341335964        3.2140617665
 H          4.6521466645       -0.8879292499        3.3086354287
 H          4.3090990515        0.6239556442        1.4098648855
  54
        -83.59059427
 N          7.1671802330        0.1299522680        3.1596921876
 C          6.4629982847        0.2328315262        2.2505748816
 C          5.5957398059        0.3930411340        1.1730425874
 C          4.4718358024        1.2735419194        1.4090693575
 C          3.1494809348        1.0104326506        1.1104961720
 C          2.6962142513       -0.2447498305        0.5927029362
 C          1.3827983249       -0.4596753032        0.3063544073
 C          0.4144450810        0.5482214060        0.5113237960
 C         -0.9690457384        0.3602612036        0.2472995088
 N         -1.8991240843        1.2946713284        0.3899334423
 C         -3.0817333936        0.7401549109        0.0629609657
 C         -4.2961155516        1.5415285398        0.0547986784
 C         -5.3246200521        1.3074751740       -0.8570367412
 C         -6.4560593245        2.1006641081       -0.8462968018
 C         -6.5752920122        3.1373538788        0.0654992559
 C         -5.5478822993        3.3889645440        0.9605665594
 C         -4.4133836675        2.6011670900        0.9534629664
 C         -2.8928148908       -0.6052515442       -0.2872627527
 C         -3.8131220152       -1.6698151606       -0.6220987450
 C         -3.4357582026       -2.6858352916       -1.5041340602
 C         -4.3095760191       -3.7122447595       -1.8060956498
 C         -5.5685414114       -3.7491759135       -1.2294066928
 C         -5.9492416730       -2.7513342308       -0.3450613512
 C         -5.0830813643       -1.7210736622       -0.0402805872
 N         -1.5454387509       -0.8087652074       -0.1817616002
 C          0.8457576678        1.7920517906        1.0328580896
 C          2.1512333429        2.0115306866        1.3350319454
 C          5.8914884860       -0.2407527609       -0.0646023190
 C          6.9145248431       -1.2119842901       -0.1466915782
 C          7.2024640964       -1.8286922566       -1.3408918296
 C          6.4977984235       -1.4967351720       -2.4934735305
 C          5.5012597098       -0.5295223667       -2.4366003083
 C          5.1992031124        0.0957123606       -1.2490902232
 H          4.6953307957        2.1902004487        1.9421875212
 H          3.4144219418       -1.0379925615        0.4506058631
 H          1.0831459189       -1.4246445969       -0.0793681161
 H         -5.2290372168        0.5133702829       -1.5830743909
 H         -7.2478616470        1.9127702192       -1.5569139028
 H         -7.4627515727        3.7530144175        0.0711124313
 H         -5.6333543074        4.2032595427        1.6652155547
 H         -3.6027789397        2.7867244727        1.6408402121
 H         -2.4637804151       -2.6551579195       -1.9770566829
 H         -4.0080116921       -4.4865235190       -2.4962411641
 H         -6.2490952579       -4.5529680702       -1.4659881905
 H         -6.9267870289       -2.7800921132        0.1129096782
 H         -5.3745584565       -0.9537832879        0.6606224011
 H         -1.0815220664       -1.6904847840       -0.3223012639
 H          0.0964574525        2.5525873484        1.1852245396
 H          2.4667658177        2.9635680182        1.7363886341
 H          7.4587926495       -1.4724179107        0.7495392450
 H          7.9823210354       -2.5746896472       -1.3846963904
 H          6.7301873609       -1.9817811479       -3.4294803392
 H          4.9657470939       -0.2576635400       -3.3348905008
 H          4.4437575947        0.8662341588       -1.2185873548
