124
 energy: -165.925402786315 gnorm: 0.000056946521 xtb: 6.7.1 (edcfbbe)
C            7.72181779435034        2.55589701458860       -1.51853135160831
C            7.32144569267521        2.09095946395163       -0.11520058800417
C            7.16021532390467        3.33508455014993        0.77152705342078
C            8.44463472924550        1.20011331133260        0.43636482459372
C            6.01784730804160        1.30790716790317       -0.10771103443695
C            5.50662676663385        0.83678058711448        1.10123635696442
C            4.31926804778827        0.13562123077201        1.16208550090297
C            3.60136763278560       -0.11848136236399       -0.00078513865868
N            2.35868242872742       -0.81191770148570        0.04741745450888
C            2.37233357622599       -2.18600031260008        0.19483039919219
C            3.60101359023268       -2.84499128656856        0.28110577220021
C            3.66357736377602       -4.20382891580316        0.53260258618300
C            2.49866857726673       -4.94886666675422        0.73682542183138
C            2.61514322174401       -6.42341434855407        1.08827897582557
C            3.33145335315711       -7.15898507773889       -0.05478315469939
C            1.25609032489348       -7.09422794637127        1.30680027051649
C            3.42992486592832       -6.56318981492662        2.38377082943994
C            1.28506965847499       -4.29408137605267        0.58978415611678
C            1.16159663089573       -2.93437272324881        0.25659906089574
B           -0.16220168910817       -2.19927362874063       -0.01559019655637
C           -1.57760779851307       -2.73980968996532       -0.28431340565835
C           -1.89383378906188       -4.07582230907438       -0.58399324396400
C           -3.18639512018590       -4.54668185620174       -0.75918643722228
C           -3.51044431110313       -6.00202578856660       -1.05802880452003
C           -2.26159120808739       -6.88213437442782       -1.16127390051859
C           -4.39385454461352       -6.56094263064917        0.06827915945233
C           -4.26387203623093       -6.08477977089701       -2.39457895248800
C           -4.23156740219221       -3.62683047656876       -0.63583359760545
C           -3.97420861944267       -2.28742265605463       -0.40505162610010
C           -2.66503365581912       -1.82022856892277       -0.26781513302759
N           -2.45291065691188       -0.46276153523767       -0.11927230596788
C           -3.58358309627852        0.40276552130575       -0.06232073942695
C           -4.06616899757361        0.83164684458084        1.16461254062566
C           -5.14408471208132        1.69761744600485        1.22673279149109
C           -5.76823253631484        2.15990139670773        0.07390053514051
C           -6.94819746206303        3.11904136268496        0.09998136719369
C           -7.33041641244312        3.54439191188747        1.52082751029827
C           -6.58532838020717        4.38274983548273       -0.69425772445367
C           -8.16282838221644        2.43123640436939       -0.54113966056047
C           -5.27569991329407        1.70932739216120       -1.15020409010778
C           -4.20017439829496        0.84679038941747       -1.22548674994690
C           -1.19957644686918        0.13190511683471       -0.07358161691850
C           -1.10071196659263        1.52025396581780       -0.07910907428488
C            0.15245402102648        2.13923615111518       -0.00346784534407
N            0.25233486746689        3.53720922619669        0.01753638878149
C            1.28237528771352        4.16561055234372       -0.68524472439461
C            1.90858106938267        5.30200465520106       -0.16659852160104
C            2.93876498735529        5.90728881951950       -0.85791780248536
C            3.37044185870803        5.39289773715558       -2.07126039477028
C            2.75473630890623        4.26404419706393       -2.59021259204440
C            1.72093241166569        3.65392629251812       -1.90908932754329
C           -0.67717502897341        4.28526067082655        0.74237006537416
C           -1.19541265704926        3.79943595702754        1.94563074338283
C           -2.13160146953193        4.53071242368048        2.64817833033588
C           -2.56752241744691        5.75815263617809        2.17281329497052
C           -2.05525981502096        6.24770743877339        0.98064773256992
C           -1.12380533935344        5.52096746293095        0.26668798379091
C            1.30366876070256        1.34596988621062        0.05291919490915
C            1.20288080356685       -0.04206009602692        0.01888068737514
C           -0.05160356038052       -0.68973616575098       -0.02791942968054
C            4.09994551793162        0.33337289390047       -1.21385086360733
C            5.29252407524686        1.03377372566352       -1.26166656183457
H            7.88340875477932        1.70929763258742       -2.18199603677603
H            6.96144631010971        3.20628459731725       -1.94509723317842
H            8.65170371213667        3.11819552257171       -1.46113165321524
H            6.95424410001762        3.06481252974855        1.80347963680002
H            6.33914165220521        3.95113751619677        0.40972775560017
H            8.07225663432648        3.92784772320366        0.75165611782604
H            9.38880272917756        1.74044081491800        0.42554960931024
H            8.24087964109169        0.89171964375345        1.45815721975153
H            8.55151910863946        0.30598315640024       -0.17491770665362
H            6.03804657896181        1.02150690903997        2.02220134871772
H            3.93767255362364       -0.21787850906513        2.10918673793527
H            4.52311892248358       -2.29571649921919        0.16266828818948
H            4.63574773048975       -4.66939730628483        0.58914830201252
H            3.42059332525927       -8.21833224953887        0.17866138542074
H            4.32932339020037       -6.76069810739406       -0.21809308284854
H            2.76759054271447       -7.05481233565097       -0.97999610785373
H            0.65865189411996       -7.06338955853309        0.39895529613728
H            0.70646202921040       -6.61317208568291        2.11299434021703
H            1.40517423100272       -8.13869829039732        1.57529993130680
H            3.50523660122590       -7.61104409531120        2.66853978077606
H            2.94527683282891       -6.01861835625481        3.19216098870374
H            4.43588094016423       -6.17016061036615        2.26361611389492
H            0.36925456055091       -4.83634121730291        0.74518989232511
H           -1.06553019449409       -4.75362371307841       -0.68944651245330
H           -1.71465846298429       -6.88872574548468       -0.22158324086849
H           -1.60335203393225       -6.53774611211891       -1.95595424027688
H           -2.55555880999603       -7.90595296405695       -1.38633260431945
H           -5.33014317975140       -6.01475133467531        0.14581607709898
H           -4.62435450435777       -7.60785148863500       -0.12028505621470
H           -3.87613803859907       -6.48710103600427        1.02293633901159
H           -3.64847782205358       -5.68325336275275       -3.19769530535782
H           -5.19216013223151       -5.52063853066206       -2.36195692568242
H           -4.50227129458249       -7.12110855360815       -2.62673352606061
H           -5.25959748229200       -3.94072982593718       -0.73492444070696
H           -4.80579881557223       -1.60120013122401       -0.34357540008632
H           -3.59153035413728        0.48531986517634        2.07116821978761
H           -5.48625844484378        2.00897857710778        2.19951221916362
H           -8.16675267111985        4.23915532544962        1.47713076900071
H           -7.63735073359238        2.68878552109840        2.11811346908653
H           -6.50115680241043        4.04744622709288        2.01330837985537
H           -7.40766401214237        5.09409899058012       -0.65814800788490
H           -6.38106072930188        4.15401790848038       -1.73646670318219
H           -5.70133856418370        4.85373649297672       -0.26867523679241
H           -9.02374492377326        3.09593706103740       -0.51857648246022
H           -8.41329179509464        1.52345935345712        0.00455684283974
H           -7.96634511678439        2.16339441569924       -1.57573993129434
H           -5.73255543048902        2.03719162596863       -2.07132352188935
H           -3.82962277771103        0.51258000041160       -2.18389238147256
H           -1.98125486625539        2.14156087776678       -0.13004839738745
H            1.58236826506755        5.69894993274474        0.78391437650974
H            3.41554843059662        6.78350694692547       -0.44212642289776
H            4.17849825888902        5.86813974074304       -2.60709302234585
H            3.07884846992164        3.85953925148510       -3.53836300157375
H            1.23688897906461        2.77971636974423       -2.31955796380753
H           -0.84922883731706        2.84846776927216        2.32352271404402
H           -2.51971101878527        4.14293034641611        3.57916925702592
H           -3.29901691536947        6.32829580562723        2.72574637242512
H           -2.39263924209150        7.20067460952793        0.59861161421985
H           -0.73627369379796        5.90013637322182       -0.66800448074778
H            2.26394906975815        1.83346812801931        0.11806035938890
H            3.54785953409147        0.13397832536044       -2.12072340285984
H            5.64471524892589        1.36648129145517       -2.22375746005217
