124
 energy: -166.017503480364 gnorm: 0.000093456457 xtb: 6.7.1 (edcfbbe)
C            7.72301508023055        2.54574278758829       -1.60228131419932
C            7.29899204479910        2.20346460108565       -0.17089766800245
C            7.12408394706751        3.52016809488966        0.60037381320010
C            8.41184284132593        1.36530578667562        0.47630038515858
C            5.99900624217572        1.41537740653792       -0.11874726046336
C            5.44724888360942        1.08258386299665        1.11744929371733
C            4.26593254577847        0.37427399119772        1.21627845709247
C            3.60238635212140       -0.03316607752084        0.06611167482582
N            2.36770700191908       -0.74472046423250        0.14601857886952
C            2.40130007694159       -2.11560954834599        0.32670765791404
C            3.63919495339491       -2.74472498623559        0.51277000833805
C            3.71673122447264       -4.09165074227652        0.76920578737281
C            2.56752651448820       -4.88002412572384        0.87345213891523
C            2.70306425303148       -6.35734773575083        1.21404472645214
C            3.54969010051896       -7.04745149083506        0.13370768569711
C            1.35165861984894       -7.07392168836073        1.28643388207801
C            3.39167176291643       -6.49792424073612        2.57984307292814
C            1.35637212571368       -4.25426304268458        0.64897131319362
C            1.22388367690102       -2.89408062569464        0.33585188231045
B           -0.11296793123191       -2.18333403417178        0.02031267148585
C           -1.51377452093076       -2.75552932176869       -0.29953918236070
C           -1.78042706284381       -4.09376304908089       -0.62136859244060
C           -3.04681600532217       -4.59315633059696       -0.85719613885299
C           -3.32677506162710       -6.04512920490820       -1.21752586148743
C           -2.05510748815429       -6.89653704583020       -1.27220279707254
C           -4.26221479796249       -6.65628839384703       -0.16331639568882
C           -3.99717946153095       -6.09713918144811       -2.59858386427287
C           -4.11199951404741       -3.69476780766799       -0.75086727124441
C           -3.90131687771515       -2.36426575034560       -0.48339776562049
C           -2.60726143675257       -1.86301919734954       -0.29118777783799
N           -2.43667049595599       -0.50273279482056       -0.10765943001277
C           -3.59311613907627        0.33124334448036       -0.04218279861656
C           -4.10941151331341        0.70461273635484        1.18820557969138
C           -5.21186567944598        1.53919091184914        1.25912636639107
C           -5.82958832435661        2.02003498335392        0.11063999706612
C           -7.04338655230631        2.93622354443826        0.14573077453637
C           -7.44878885049729        3.32262700398185        1.57128505523299
C           -6.72623518090738        4.22663456481155       -0.62461209188165
C           -8.22712171819128        2.21295327785529       -0.51420611890622
C           -5.30273387527252        1.62516307070181       -1.11824414045797
C           -4.20030127850958        0.79780069665424       -1.20106381694751
C           -1.20740435833076        0.11731778437443       -0.04613294006954
C           -1.13218802169938        1.50836028312439       -0.05758217121307
C            0.10488476886504        2.13634967340660        0.01518759784348
N            0.17544667236671        3.53843754477575        0.01115783151584
C            1.21352084157139        4.18029495046341       -0.67026271694084
C            1.79704960513980        5.33621688648851       -0.14997568657889
C            2.82635576409289        5.96313211850122       -0.82516675605938
C            3.29848762169084        5.44817531024148       -2.02182105619877
C            2.72480657122720        4.29936034734877       -2.54248132551767
C            1.68884887990165        3.67119254809124       -1.87950225621207
C           -0.78907180847766        4.28565125063275        0.69321315495180
C           -1.31085112676067        3.83168354102040        1.90523310430215
C           -2.27160692297335        4.56715771749064        2.57104737880516
C           -2.72257360023355        5.76932316289320        2.05016160867578
C           -2.20470679096941        6.22855134073107        0.84973909038938
C           -1.25072292906870        5.49484831859701        0.17152602840059
C            1.27235784786747        1.38717867004284        0.09090572057776
C            1.20698574140767       -0.00439789515957        0.08435924568485
C           -0.03682345228406       -0.66865705165861        0.02062758887816
C            4.14248728035067        0.27779856685088       -1.17146399889757
C            5.32445749563104        0.99343241241253       -1.25836337599961
H            7.91164304257656        1.64559119722105       -2.18282032103365
H            6.96167221345350        3.14152062367822       -2.10102225751798
H            8.64316600884422        3.12615432425975       -1.57782067570534
H            6.90446300899018        3.34309040924155        1.64941777432553
H            6.30802170495920        4.10040043255635        0.17445833134994
H            8.03607218819853        4.11041547312099        0.54065211304689
H            9.35520128649538        1.90614545893582        0.44216951543187
H            8.18408523578049        1.14128695124790        1.51501423064482
H            8.53368950265333        0.42424607279407       -0.05681092179452
H            5.94140894966876        1.38207985515394        2.02904914382765
H            3.84997309971217        0.13213031436767        2.18387324350155
H            4.55075487399663       -2.16713431032885        0.46630178658528
H            4.69447975258941       -4.52959847965326        0.90834783266147
H            3.63938920650303       -8.11065305258522        0.34875757987015
H            4.55002168301662       -6.62554945129655        0.08385833964791
H            3.08187021559459       -6.93062044267753       -0.84220333180409
H            0.84274244613379       -7.03844257618053        0.32625390828419
H            0.71303937296317       -6.63061246815755        2.04739607665199
H            1.50794066747391       -8.11972422264961        1.54536742548855
H            3.49626867971769       -7.54910118108356        2.84228461456560
H            2.80045823102842       -6.00661507721366        3.35059308126004
H            4.38158181570693       -6.04929284431508        2.57242087378049
H            0.44597155045093       -4.82070498431421        0.73665870570592
H           -0.93095286211150       -4.74807365695884       -0.70844689587035
H           -1.56217496417015       -6.91795787253962       -0.30323696158647
H           -1.36095996236560       -6.51783420149471       -2.01930735146669
H           -2.31333314281545       -7.91950336714362       -1.54064112593915
H           -5.21697014560719       -6.13820061667582       -0.13130783802288
H           -4.45166631338516       -7.70367265347505       -0.39078701277889
H           -3.80739240954605       -6.59364465143116        0.82367180093832
H           -3.34078951865035       -5.66330510973020       -3.35088957885523
H           -4.93328901295887       -5.54486531352789       -2.60489882450479
H           -4.20735820341013       -7.12826750773164       -2.87677217030926
H           -5.12791676983869       -4.03142421200423       -0.89808518335720
H           -4.75065120589093       -1.69869073501223       -0.43477431354004
H           -3.64076520343391        0.34242333084007        2.09190137639323
H           -5.57886177685745        1.81012432437052        2.23508853436100
H           -8.30821454737061        3.98911081421882        1.53448555426822
H           -7.73046716787815        2.44670907681774        2.15125314475989
H           -6.63965925468127        3.84388578527407        2.07819258598872
H           -7.57308816712660        4.90778289445403       -0.57476945671373
H           -6.51532267621051        4.02578958778010       -1.67120163262429
H           -5.85899823140902        4.72049021208624       -0.19078234572292
H           -9.11232224500016        2.84500005545420       -0.49053578742029
H           -8.44805700180232        1.28933389730191        0.01754396926502
H           -8.01152968263444        1.96614089137635       -1.55032446707198
H           -5.75414760244828        1.96878621209139       -2.03640973980935
H           -3.80228671441396        0.50788644667737       -2.16305317525148
H           -2.02246992631529        2.11260373532370       -0.13082111069584
H            1.43931602408008        5.73482556288262        0.78848707496546
H            3.26973661113435        6.85584654960807       -0.40763469232079
H            4.10676636314245        5.93852625123512       -2.54379882318179
H            3.08154830192122        3.89242454872145       -3.47776183608925
H            1.23752240951207        2.78061281984547       -2.29175843840954
H           -0.95382828662460        2.89940620749713        2.31771952136386
H           -2.66513267314937        4.20209191051909        3.50890223909018
H           -3.47150321275199        6.34376004024350        2.57482103397894
H           -2.55378786177740        7.16194096715607        0.43175735362951
H           -0.85717012116422        5.85138021789070       -0.76961135650477
H            2.21928031419554        1.89844310376544        0.16164680770548
H            3.63007270900891       -0.04001251413103       -2.06808779908351
H            5.70793401907504        1.21923885261677       -2.23945168795933
