124
 energy: -166.017207788904 gnorm: 0.000047159290 xtb: 6.7.1 (edcfbbe)
C            7.41331034746737        3.87341194817777       -0.61457991137011
C            6.89045952789906        3.31615083431464        0.71288847170548
C            6.42030384332637        4.49892955417862        1.57295878967626
C            8.04362886654319        2.58537592988530        1.41667779977784
C            5.73143929623324        2.34893878403782        0.52601899899307
C            5.12086154122216        1.78397862521432        1.64420207529760
C            4.05123307210850        0.91742504805497        1.52603390206946
C            3.56311165446907        0.58635531114520        0.26995910288526
N            2.43205690267292       -0.27469013071411        0.13776570674506
C            2.65008281799468       -1.62617572929373       -0.05745234184676
C            3.96876928838997       -2.09694555492750       -0.10651185865366
C            4.23933950241913       -3.41533939924754       -0.37931897142709
C            3.21450473430945       -4.32799621575099       -0.64263227368751
C            3.56843106116270       -5.76257248002365       -1.00751560543736
C            2.33383403106930       -6.62063813988406       -1.29780119682738
C            4.33129249654628       -6.40403081503322        0.16138515354437
C            4.45227250549803       -5.75888490095944       -2.26400306834694
C            1.91813850631275       -3.85944263774367       -0.54746539049744
C            1.58459453689263       -2.53773973790158       -0.21926111499735
B            0.14349717462331       -2.00054440052398       -0.04954019237368
C           -1.20604679102248       -2.74547259295192        0.08427504921784
C           -1.34539044810969       -4.12023639016921        0.32212164964637
C           -2.56147418672623       -4.77167283970648        0.39901640537608
C           -2.70374813000032       -6.26527240070404        0.65464551373443
C           -1.35369718042110       -6.96899981275815        0.81870140467681
C           -3.51479706256707       -6.48132182330450        1.94103323315073
C           -3.43434563661613       -6.90974313512996       -0.53325079466403
C           -3.70933545450152       -3.99404743584193        0.22495109752094
C           -3.63049271350458       -2.63603016244310        0.03729269121088
C           -2.39110765899111       -1.98423557720232       -0.00772998908814
N           -2.36719389962674       -0.60676429214541       -0.12804959410053
C           -3.60948865848484        0.09081610657401       -0.21997455414618
C           -4.27045004208002        0.50240976715036        0.92754970952075
C           -5.45576323274159        1.21037434399058        0.83500064629291
C           -6.01372285568573        1.52687059980536       -0.39848320665942
C           -7.30483500080795        2.31808842551508       -0.54266068454423
C           -7.89365780811592        2.73731218227318        0.80772533245378
C           -7.02074466856714        3.59092128372778       -1.35428443235242
C           -8.34350329707117        1.45398530387683       -1.27321385241639
C           -5.34280688587871        1.09253258689174       -1.54020671723176
C           -4.15737321865956        0.38735771146026       -1.46000089316340
C           -1.22032877120963        0.15368094670034       -0.05319717256213
C           -1.31143668618029        1.54388716894813       -0.05293333422149
C           -0.16183295816485        2.31480815410165        0.06595544892835
N           -0.26040892700095        3.71403591486208        0.09695794634478
C            0.72574032680880        4.49776992229341       -0.51047678894698
C            1.14187058750971        5.69303124559526        0.07719970029946
C            2.12283351698980        6.46041215951905       -0.52060347834630
C            2.71216295358640        6.04928249084204       -1.70532971081480
C            2.30169827011623        4.86449716053898       -2.29503461525854
C            1.31492058187305        4.09558730788873       -1.70971249378421
C           -1.34711506420111        4.32340516374913        0.73183635936670
C           -1.87331445140349        3.78915722673594        1.90860935911292
C           -2.95918054704052        4.38386755051306        2.52070914122054
C           -3.53376062421597        5.52324003253046        1.98044380397317
C           -3.00851798883562        6.06577845773403        0.81865013940887
C           -1.92833221714180        5.47247979364663        0.19433608566676
C            1.08486823869554        1.70817493583458        0.15464890691710
C            1.18993979256510        0.32053571615427        0.08881694735796
C            0.03619076388096       -0.48817878624125       -0.00243788012599
C            4.16919068413041        1.12497901955702       -0.85499450892808
C            5.23828243687411        1.99367902761541       -0.72443441102289
H            7.79538259211171        3.07872286867635       -1.25132945009847
H            6.63223276033182        4.41408941463422       -1.14462745467829
H            8.22910995678303        4.56651407320219       -0.41897599975277
H            6.10473655470297        4.17367938593370        2.56033669452514
H            5.58118780861960        5.00092188873591        1.09494968406485
H            7.22916014933660        5.21639644363280        1.69410612602178
H            8.88599276901643        3.26042138287678        1.55192273401574
H            7.74189424753092        2.21695664678815        2.39336513265634
H            8.37306998392133        1.73754734170136        0.81896212504838
H            5.47733607747356        2.02366633720492        2.63436347956320
H            3.58523349420265        0.49626574343885        2.40523292266648
H            4.79089327735443       -1.41593741512915        0.05871624566564
H            5.27239005933169       -3.73012308318751       -0.40691964926172
H            2.64613036733684       -7.62711832428742       -1.57092682268466
H            1.75706613038430       -6.21041824341295       -2.12399237106682
H            1.69806329604138       -6.69437152133142       -0.41899406712907
H            3.71790434067431       -6.39511716481410        1.06065952239394
H            5.25304169550633       -5.86861058069224        0.37361330700116
H            4.58322556415197       -7.43622736132797       -0.07476439308062
H            4.69518302042916       -6.77888660041633       -2.55623781841620
H            5.38292297212580       -5.22428301086443       -2.09315725893403
H            3.92963288208304       -5.27790088200318       -3.08891868641621
H            1.10101321643065       -4.52658217351136       -0.75787192917755
H           -0.43898024265768       -4.67907362917760        0.47413214780621
H           -0.79614733643140       -6.55786586117330        1.65750167348997
H           -0.75809287600718       -6.87880673234705       -0.08657252682841
H           -1.51663486361680       -8.02834677203934        1.00941586932888
H           -4.50746226733732       -6.04610120377660        1.86084515622626
H           -3.62426659963924       -7.54530332076193        2.14271772134860
H           -3.00799170209851       -6.01965283115752        2.78666131162403
H           -2.87998512688247       -6.73635412677771       -1.45388057814031
H           -4.43280976014001       -6.49831014322362       -0.65528233842014
H           -3.52516628823940       -7.98367847945399       -0.38134053601696
H           -4.68832221141117       -4.44997581543474        0.25413357624478
H           -4.54298204906718       -2.06685191621207       -0.06375267270896
H           -3.84864659292808        0.26933259594058        1.89466677633482
H           -5.93445735054830        1.51724139082265        1.75000010089218
H           -8.80750187565503        3.30466255134340        0.64276426749402
H           -8.14371498312966        1.86944606526945        1.41377309516479
H           -7.19933785699994        3.37016460576063        1.35605818622825
H           -7.92569550722652        4.18878432772097       -1.43951769501003
H           -6.67427292678891        3.35512723945650       -2.35665545170479
H           -6.25626240133560        4.18838092979877       -0.86100135711513
H           -9.27947361326957        1.99954214455578       -1.37271034451702
H           -8.53435660518735        0.54038183445902       -0.71325558815690
H           -8.00236784611294        1.17918711879066       -2.26753475005359
H           -5.74342439764747        1.30933021646666       -2.51868951975341
H           -3.64773960583694        0.06537141947678       -2.35673133472643
H           -2.26688754115631        2.03752282696824       -0.13082777151743
H            0.69250694211991        6.01146952172905        1.00693414789099
H            2.43707506709234        7.38159460571211       -0.05106382417984
H            3.48310746495024        6.64865659715229       -2.16630490072656
H            2.74894251036114        4.53888093910675       -3.22329415895411
H            0.99021195509341        3.17689355708612       -2.17601084791873
H           -1.42218546249260        2.90519889291621        2.33522412305658
H           -3.35547610066580        3.95782707461782        3.43127293612391
H           -4.38193752300954        5.98659339976677        2.46225050733273
H           -3.45004596065947        6.95310074420394        0.38784701916559
H           -1.52867966024365        5.89168664230679       -0.71790980704576
H            1.96144506832658        2.32736522734349        0.25877882070532
H            3.79445188826578        0.86474074396629       -1.83450710858853
H            5.67610222779135        2.39568510211020       -1.62291893173173
