  124
       -165.86845175
 C          7.2623893072        2.9258235491       -1.6937034139
 C          7.0122905542        2.3960328810       -0.2795883875
 C          6.7120876659        3.5955195194        0.6315916983
 C          8.2814919658        1.6769629405        0.1971124682
 C          5.8312229916        1.4434626018       -0.2137355425
 C          5.4806775299        0.8656644578        1.0059836116
 C          4.3715963925        0.0543278991        1.1322533687
 C          3.5691492933       -0.2016988639        0.0258001122
 N          2.3516707315       -0.9214648434        0.1405100103
 C          2.3652652186       -2.2934702410        0.2867955465
 C          3.5926406740       -2.9485377345        0.4126431779
 C          3.6510778163       -4.3100708810        0.6440271959
 C          2.4809220652       -5.0629180074        0.7799047550
 C          2.5843754911       -6.5452055784        1.0954785107
 C          3.3923818420       -7.2425058613       -0.0084628621
 C          1.2183377948       -7.2303016873        1.1848617502
 C          3.2970889501       -6.7158382767        2.4448282339
 C          1.2712592518       -4.4110018481        0.6029007990
 C          1.1547639371       -3.0455784850        0.2976096977
 B         -0.1633721840       -2.3137350541       -0.0101015065
 C         -1.5737101487       -2.8503145218       -0.3113908715
 C         -1.8878274526       -4.1884202175       -0.5980938278
 C         -3.1790894715       -4.6584115016       -0.7751772176
 C         -3.4977517518       -6.1153776444       -1.0637032584
 C         -2.2471862042       -6.9960740146       -1.1258662748
 C         -4.4072048777       -6.6620804008        0.0462804561
 C         -4.2188195374       -6.2081903521       -2.4160597007
 C         -4.2267043646       -3.7393487994       -0.6647534358
 C         -3.9704373117       -2.3980592715       -0.4503088371
 C         -2.6613529493       -1.9297352071       -0.3158272685
 N         -2.4492380860       -0.5734821155       -0.1769012331
 C         -3.5527598873        0.3134385833       -0.0671792726
 C         -3.8630504714        0.8619732626        1.1701819602
 C         -4.8566355584        1.8153305395        1.2840185631
 C         -5.5636310070        2.2564177807        0.1713196354
 C         -6.6026478962        3.3621634018        0.2404291687
 C         -6.8134541460        3.8826344888        1.6643356850
 C         -6.1165887878        4.5325433783       -0.6271654588
 C         -7.9464979156        2.8395322527       -0.2850806351
 C         -5.2665065678        1.6679147310       -1.0571933567
 C         -4.2804795656        0.7104461597       -1.1830178526
 C         -1.1956481013        0.0158963016       -0.1144477063
 C         -1.0903275747        1.4030595722       -0.1781880053
 C          0.1503744018        2.0246361198        0.0010855562
 N          0.2475688562        3.4190513208        0.0177768501
 C          1.3986181635        4.0419938702       -0.4676873399
 C          1.9069551213        5.1807955291        0.1623679888
 C          3.0643917752        5.7751353924       -0.2976610114
 C          3.7403325254        5.2501923337       -1.3887945809
 C          3.2374898342        4.1244239773       -2.0228071187
 C          2.0801687379        3.5241547974       -1.5722599326
 C         -0.8092090896        4.1806137797        0.5205797193
 C         -1.5548210835        3.7332849068        1.6147054722
 C         -2.6235405626        4.4707842997        2.0798235484
 C         -2.9716269239        5.6672347066        1.4719262687
 C         -2.2297174067        6.1228906536        0.3925491344
 C         -1.1606977447        5.3908197845       -0.0826201080
 C          1.2894984531        1.2302048914        0.1668819465
 C          1.1949825302       -0.1572112694        0.0862181007
 C         -0.0535531751       -0.8059315846       -0.0150574118
 C          3.9287890608        0.3332254349       -1.2048551006
 C          5.0450071471        1.1389029735       -1.3193472123
 H          7.4839512800        2.1145394849       -2.3833756061
 H          6.4009954978        3.4814357353       -2.0553472588
 H          8.1169850735        3.5991159909       -1.6818775208
 H          6.5982276071        3.2868816245        1.6670621878
 H          5.7901676630        4.0808984547        0.3165809989
 H          7.5226506212        4.3188855978        0.5783751951
 H          9.1361837496        2.3469920881        0.1356713779
 H          8.1867529937        1.3425651753        1.2261388828
 H          8.4784730687        0.8082623766       -0.4277445838
 H          6.0715739491        1.0640818271        1.8867537692
 H          4.1046133659       -0.3658351376        2.0909569847
 H          4.5141073745       -2.3915059121        0.3355776457
 H          4.6209791180       -4.7738183250        0.7345105514
 H          3.4596927054       -8.3096443496        0.1933783167
 H          4.4007399276       -6.8442749831       -0.0733393376
 H          2.9076105548       -7.1024456512       -0.9724746591
 H          0.6916597716       -7.1643186902        0.2363916264
 H          0.6075725322       -6.7856135766        1.9668535022
 H          1.3550826994       -8.2837514203        1.4217705962
 H          3.3796111391       -7.7714745873        2.6957326345
 H          2.7347860381       -6.2157844552        3.2309269905
 H          4.2968031044       -6.2913667705        2.4184329615
 H          0.3540898284       -4.9587700637        0.7119371970
 H         -1.0605559983       -4.8665847345       -0.6917817508
 H         -1.7238550500       -6.9893392790       -0.1732714354
 H         -1.5715213591       -6.6620700749       -1.9095794928
 H         -2.5361561248       -8.0224040752       -1.3444046894
 H         -5.3473373230       -6.1200646533        0.0913792395
 H         -4.6275392520       -7.7125207618       -0.1328066643
 H         -3.9145674017       -6.5715602618        1.0122472415
 H         -3.5806619395       -5.8210067510       -3.2078017573
 H         -5.1411400334       -5.6341541589       -2.4107015298
 H         -4.4615152387       -7.2445332431       -2.6423406977
 H         -5.2534479562       -4.0563930186       -0.7611728690
 H         -4.8001179751       -1.7097079721       -0.3928017050
 H         -3.3068376458        0.5460301887        2.0405126926
 H         -5.0631895934        2.2192729718        2.2601720402
 H         -7.5658199006        4.6685250605        1.6546003378
 H         -7.1633419143        3.0914552673        2.3234675112
 H         -5.8931844537        4.3025553902        2.0621205012
 H         -6.8197358787        5.3604337015       -0.5681564671
 H         -6.0218564007        4.2396672845       -1.6690962155
 H         -5.1440372155        4.8755362857       -0.2792105544
 H         -8.7012895947        3.6203052851       -0.2229522141
 H         -8.2780703323        1.9907931784        0.3095389835
 H         -7.8724560355        2.5217740348       -1.3211661896
 H         -5.8004509000        1.9714688796       -1.9444317825
 H         -4.0516950424        0.2806393584       -2.1473541862
 H         -1.9584650957        2.0195243163       -0.3431549996
 H          1.3881242337        5.5873339292        1.0181744303
 H          3.4483192738        6.6514016693        0.2039671866
 H          4.6454098648        5.7193036584       -1.7444215334
 H          3.7450283025        3.7170240722       -2.8850216798
 H          1.6877847793        2.6526795490       -2.0739514258
 H         -1.2821176647        2.8063628798        2.0960158476
 H         -3.1823470153        4.1146259166        2.9329336803
 H         -3.8071930632        6.2439928556        1.8392189703
 H         -2.4934971502        7.0533028576       -0.0887697145
 H         -0.5915380036        5.7439805444       -0.9300889461
 H          2.2366771808        1.7136803614        0.3404136162
 H          3.3147928148        0.1246614719       -2.0686936960
 H          5.2862295794        1.5373441289       -2.2898237124
