  93
       -134.94740564
 C          1.0159119696        0.1081077101        4.9877235570
 C          0.3415849642        0.3660487981        3.6784586869
 C         -0.9259603063        0.9488221063        3.6391205763
 C         -1.5539619386        1.2028339027        2.4425019549
 C         -0.9295269745        0.8858508336        1.2291281907
 C          0.3323293065        0.2740431397        1.2570723536
 C          0.9435772484        0.0294365046        2.4777403071
 C          0.9928709855       -0.2206150307       -0.0029736617
 C          2.4623598147        0.1431706099        0.0071164691
 C          2.7876275776        1.4892223363        0.0374861828
 C          4.1046768332        1.9111244265        0.0444886493
 C          5.1415339668        0.9727546854        0.0212440062
 C          6.5470836597        1.4053722809        0.0214499843
 C          7.4979075534        0.7341916969        0.7867045832
 C          8.8165349792        1.1488409571        0.7919955834
 C          9.2085225106        2.2366081484        0.0297005739
 C          8.2722951202        2.9079822145       -0.7387970449
 C          6.9523009247        2.4976696189       -0.7422159706
 C          4.8241625236       -0.3717190194       -0.0068555635
 C          3.4885721036       -0.8074775521       -0.0163054318
 C          3.2370399394       -2.2404024725       -0.0476964717
 O          4.1800955062       -3.0685341398       -0.0686708668
 C          1.8549658513       -2.6379311910       -0.0524868375
 C          1.5548809215       -4.0199819110       -0.0836261751
 C          0.2627761625       -4.4651357563       -0.0843925821
 C         -0.8138492284       -3.5644374861       -0.0511724098
 C         -2.2039697055       -4.0047116891       -0.0423774413
 C         -3.1832330744       -3.2761420030        0.6415277265
 C         -4.5032120077       -3.6797846219        0.6354817265
 C         -4.8828416243       -4.8232405865       -0.0492875905
 C         -3.9231845350       -5.5615473916       -0.7241291341
 C         -2.6025889137       -5.1595641463       -0.7221109565
 C         -0.5110024012       -2.1996667121       -0.0285280118
 C          0.7844765894       -1.7343001616       -0.0311626297
 C          0.3432552599        0.3423139237       -1.2387652236
 C          0.9670276001        0.1774722130       -2.4660937068
 C          0.3937259936        0.6262335048       -3.6445505835
 C          1.0741988164        0.4278962272       -4.9610741866
 C         -0.8496547006        1.2555884756       -3.5753154871
 C         -1.4918702752        1.4272920841       -2.3714482146
 C         -0.9081240988        0.9719670050       -1.1824184576
 N         -1.5486285203        1.1611843208        0.0258867991
 C         -2.8954855205        1.6218248457        0.0218707320
 C         -3.1924770412        2.9533527110        0.2799175960
 C         -4.5063377083        3.3769390087        0.2730065619
 C         -5.5561380363        2.4980402263        0.0107042522
 C         -6.9837911993        3.0190524372        0.0155767692
 C         -7.1179596750        4.1145376718       -1.0518073551
 C         -7.2978878537        3.5998320232        1.4017419102
 C         -8.0112807902        1.9259566728       -0.2892575463
 C         -5.2368543281        1.1700144013       -0.2472876647
 C         -3.9242384338        0.7314363760       -0.2437382436
 H          1.9504230416       -0.4270509327        4.8441464533
 H          1.2285255883        1.0495829912        5.4940929048
 H          0.3703020071       -0.4793686252        5.6390468455
 H         -1.4236081172        1.2021324239        4.5636994288
 H         -2.5369991829        1.6478692511        2.4375943370
 H          1.9136263388       -0.4458038796        2.4793787785
 H          1.9884426937        2.2186764330        0.0602423944
 H          4.3300492426        2.9656877053        0.0901822058
 H          7.1948657795       -0.1071393202        1.3922943926
 H          9.5425229686        0.6222612507        1.3942882298
 H         10.2393294737        2.5591680743        0.0332506032
 H          8.5730256275        3.7544410636       -1.3397921025
 H          6.2293954391        3.0151746911       -1.3565936334
 H          5.5951291805       -1.1262471884       -0.0462691655
 H          2.3907990317       -4.7035299680       -0.0961052190
 H          0.0695153845       -5.5280177799       -0.0787123737
 H         -2.8981801962       -2.4013465038        1.2097330494
 H         -5.2423503715       -3.1034929144        1.1751145797
 H         -5.9159626395       -5.1384701868       -0.0533619440
 H         -4.2103492426       -6.4549732566       -1.2601133395
 H         -1.8694768846       -5.7314246090       -1.2717849612
 H         -1.3245577942       -1.4900093123       -0.0370758123
 H          1.9263210318       -0.3185059006       -2.4926274730
 H          0.6092465868       -0.3987635323       -5.4991735690
 H          0.9851695343        1.3189700225       -5.5796293351
 H          2.1264553957        0.1946230851       -4.8224039314
 H         -1.3148179719        1.6164818066       -4.4808385553
 H         -2.4495087450        1.9241412811       -2.3388796543
 H         -2.3915601434        3.6490089301        0.4834143032
 H         -4.7090285163        4.4171415527        0.4760201870
 H         -6.4557234136        4.9518654203       -0.8495765575
 H         -8.1392139906        4.4876581875       -1.0761863180
 H         -6.8735532001        3.7152496125       -2.0340069799
 H         -7.1791274621        2.8347359088        2.1662338664
 H         -8.3237798695        3.9594979432        1.4311258301
 H         -6.6407064052        4.4301434265        1.6447778353
 H         -7.8486392598        1.4982927414       -1.2758569267
 H         -7.9745014531        1.1337886822        0.4549045869
 H         -9.0106410103        2.3552869261       -0.2715256547
 H         -6.0086353265        0.4485096594       -0.4565455482
 H         -3.6988044067       -0.3049261201       -0.4497786174
