78
 energy: -122.001092861330 gnorm: 0.000036109346 xtb: 6.7.1 (edcfbbe)
O           -6.08186123893696        0.91994977040587        2.42412895091325
P           -5.72698676229607        0.67846984044146        1.01294657117369
C           -6.73383948775650       -0.63009131752990        0.24013994451587
C           -8.02991375578602       -0.77936502101944        0.71616362082064
C           -8.86276812903778       -1.74000608473907        0.17099017243024
C           -8.39933868036424       -2.55355913203438       -0.85105567443140
C           -7.10424917518991       -2.40918967854318       -1.32327093702460
C           -6.26852505637969       -1.44844970919490       -0.78092082781808
C           -5.93545630270042        2.15144250371193       -0.03878108823539
C           -5.86411727279976        3.38832647111017        0.58808057441696
C           -6.00304077078269        4.54935553467809       -0.15156522454907
C           -6.21470475096981        4.47367245813669       -1.51913176764385
C           -6.29290615874215        3.23914594141949       -2.14505075880446
C           -6.15507067337761        2.07577136770598       -1.40849606000910
C           -3.99390755702361        0.15353721211510        0.80353927094744
C           -3.40579662664704       -0.50413116733324        1.87655869855481
C           -2.10120102808837       -0.94854856611503        1.79524118343589
C           -1.37197403946889       -0.74414492576871        0.62528155248860
N           -0.04959021853035       -1.19936760769519        0.53301688498571
C            0.38832781818360       -2.47535160564999        0.84447085865680
C           -0.33851973569564       -3.58676771006446        1.24709848630244
C            0.35284307657721       -4.76308696668009        1.46860492416258
C            1.73212443549397       -4.84343878722265        1.28627147320680
C            2.45712059073257       -3.74781416501754        0.86167627130820
C            1.78313413299925       -2.55458574079963        0.63315754007680
C            2.20083756703373       -1.25642614276658        0.18005107994594
C            3.43352819673519       -0.72366456015238       -0.16401929916922
C            3.49143955176709        0.60675071271064       -0.54679869423566
P            5.04740514346015        1.43523288242146       -0.99413701007546
O            4.86517990302284        2.52578957514481       -1.97226323057704
C            5.77747556268562        2.00751639489536        0.57568686232585
C            6.61018536596559        3.11693965926831        0.51554963879154
C            7.21467318383165        3.59382261907814        1.66500738594327
C            6.98638834810467        2.96088041652659        2.87670215253031
C            6.15058758562498        1.85684989116755        2.93929479160864
C            5.54415711684351        1.37765857880304        1.79137740502294
C            6.16121442292489        0.12232065674732       -1.59375590308164
C            6.24568876979362       -0.05281543857255       -2.96856513587780
C            7.06109320263540       -1.03941480848161       -3.49389863531513
C            7.79377756691934       -1.85265851587678       -2.64391897373740
C            7.71524634702472       -1.67525985133715       -1.27138341395765
C            6.90081656262521       -0.68920835646545       -0.74279679124089
C            2.33926170890014        1.39740595244632       -0.57533780927583
C            1.10355676832806        0.88685493900468       -0.23626578214283
C            1.03515748265830       -0.45243749539739        0.12928437748425
C           -1.96103243375818       -0.08207631634218       -0.45046850108772
C           -3.26351452935488        0.36903507735420       -0.35857621560482
H           -8.36392887972468       -0.13987632273548        1.52196602068639
H           -9.87055356422896       -1.85462461461044        0.54246738061087
H           -9.04744148011461       -3.30506522083653       -1.27736467113437
H           -6.74325709955620       -3.04835091655024       -2.11589255491582
H           -5.25539181707571       -1.33954868730189       -1.14094644843571
H           -5.70869086026131        3.41999732479367        1.65785665855067
H           -5.94827975796680        5.51094281100374        0.33754636597100
H           -6.32418856715752        5.37879554358318       -2.09816647390268
H           -6.46536364592860        3.18337335259511       -3.21001504563780
H           -6.22871850323258        1.11114116120586       -1.89033260728330
H           -3.98366762211328       -0.64332442298492        2.77952993536946
H           -1.63625249736510       -1.43926914677525        2.63702645677986
H           -1.40920687524280       -3.54108424812680        1.37547305400237
H           -0.18984738964626       -5.64120312110497        1.78618563519367
H            2.23540631445327       -5.78059101199182        1.47229695063539
H            3.52289803450250       -3.81312709605741        0.70300260900879
H            4.32565311949339       -1.33147535286998       -0.13868200163644
H            6.76460842655387        3.59847078182970       -0.44057942204391
H            7.86177852706500        4.45747537665998        1.61640003733769
H            7.45694058240258        3.33168542329996        3.77543545344189
H            5.96903711520554        1.36883904858594        3.88594623700961
H            4.88319556975789        0.52344763929391        1.83637658710608
H            5.67236080119862        0.60175222121877       -3.61088308526793
H            7.12606500701246       -1.17330665759721       -4.56383025391479
H            8.43140206989782       -2.62314752639414       -3.05186321720298
H            8.29245396299206       -2.30574068575742       -0.61064665486115
H            6.84505805620158       -0.54066458726671        0.32628612869451
H            2.44072255687586        2.43015157301000       -0.87897011785729
H            0.22525800026224        1.51402713027381       -0.24532840156064
H           -1.39731554287548        0.06489155639211       -1.35966830448613
H           -3.71364306858462        0.89053689072027       -1.19048818841642
