78
 energy: -121.889550483768 gnorm: 0.000064893268 xtb: 6.7.1 (edcfbbe)
O           -6.35348331058259       -0.33399634803366        1.78880013963946
P           -5.52598618348027        0.29829902558033        0.73983589358288
C           -6.20106324807627        0.06139776859950       -0.93521390161601
C           -7.01976491054926       -1.04415999589047       -1.13989593459566
C           -7.50417391027299       -1.32437576204862       -2.40309958837188
C           -7.15933954880445       -0.50939606748117       -3.47233330436118
C           -6.33580309854203        0.58851944861636       -3.27190689303660
C           -5.85176250729871        0.87480805038566       -2.00938108611391
C           -5.42392810545163        2.11324867847780        0.95001778882133
C           -6.56507629303875        2.85242181622705        0.66908658240679
C           -6.57955701125185        4.21638468129120        0.89725900299913
C           -5.45334706283083        4.84143713800008        1.41075305938302
C           -4.31846153105994        4.10232852802887        1.70193519340392
C           -4.30297889942060        2.73586941915967        1.47707328353462
C           -3.85335307744045       -0.33913877720432        0.66731913541625
C           -3.51915583973374       -1.44945894186468        1.47553719397270
C           -2.28906312354193       -2.02835165683721        1.40438888502718
C           -1.30197655347406       -1.51436511173143        0.50868139473264
N           -0.05291670616529       -2.07311144103934        0.44243838614564
C            0.22847064552324       -3.43593914349505        0.46869035440509
C           -0.64234068282609       -4.51206037158216        0.48890290371124
C           -0.09857307238900       -5.79522619047993        0.48088970444473
C            1.27767133935378       -5.98877955665337        0.43334634319979
C            2.15732971386697       -4.91538475078160        0.36456059267854
C            1.63551180022496       -3.62707184826282        0.36482400818422
C            2.22017379411077       -2.32806153565129        0.25170458821593
C            3.51697755304884       -1.86559826408442        0.11288479202390
C            3.74498920708904       -0.49574482541901        0.08867779127897
P            5.45562736244284        0.04994471411462       -0.14720181819533
O            6.42520763987993       -1.06371747853496       -0.17385881421118
C            5.42039878241093        1.00113976802657       -1.70046709335413
C            4.94284108232867        2.30423810360085       -1.77530819995985
C            4.90541321873546        2.95039795081135       -2.99747458791929
C            5.33603722131868        2.29985366457517       -4.14383690058046
C            5.81220625081646        0.99988201837026       -4.06987522559386
C            5.85027660014549        0.34998948001789       -2.84943154424492
C            5.82817115759921        1.26637137082215        1.16213020430537
C            5.12413479792392        1.31422771669506        2.35591297976903
C            5.51007052369971        2.20469485709303        3.34404305552324
C            6.59982633256417        3.03636275349393        3.14401838105303
C            7.31360902541105        2.97670975480165        1.95671866928779
C            6.92932458608482        2.09015589430486        0.96723166356911
C            2.68407894292165        0.42552332497459        0.20614551222824
C            1.37928904245430       -0.01572581161776        0.33037543455424
C            1.13801715035180       -1.38399996798057        0.31725213360783
C           -1.64647059121400       -0.40403926363495       -0.31364947773140
C           -2.88823112804062        0.14865381285722       -0.25090870437645
H           -7.28122120015953       -1.65897819908238       -0.28908477157293
H           -8.15047220909566       -2.17653803913205       -2.55667978994079
H           -7.53538770937411       -0.72858043121876       -4.46072771283337
H           -6.07338130766898        1.22598762817171       -4.10399110860126
H           -5.22694794148252        1.74167329801613       -1.84677077578261
H           -7.43468437101812        2.34341371909489        0.27188949993777
H           -7.46730625156902        4.79151150768948        0.67750481814370
H           -5.46353061939439        5.90683699610840        1.58834606240584
H           -3.44421866760100        4.58974465237477        2.10867878949249
H           -3.42513612760147        2.14759867786297        1.70828802654837
H           -4.26349952816464       -1.79989224812513        2.17682991133666
H           -2.01258038236570       -2.81856067810265        2.08543059288686
H           -1.71203252252911       -4.37454380915474        0.48405376943540
H           -0.75932658914149       -6.64738219920041        0.50103961276743
H            1.66937266049019       -6.99507240467043        0.43186348081723
H            3.22278352936289       -5.07378894483294        0.30591132274220
H            4.35849660719300       -2.53954080669924        0.04018597441699
H            4.62360968510919        2.81357865202236       -0.87743146226777
H            4.54131401785792        3.96574439476132       -3.05693395765502
H            5.30437553106368        2.80869985674931       -5.09597065068940
H            6.15306329285476        0.49450055611213       -4.96171854139385
H            6.22545464350412       -0.66076136737371       -2.76340469864375
H            4.27780252903302        0.65820320583145        2.50660949533193
H            4.95976296015438        2.24666355402406        4.27269945224944
H            6.89762317792987        3.72948800523975        3.91697148851711
H            8.16832901867439        3.61927318517310        1.80378176324077
H            7.47523786519099        2.02521345828747        0.03430948807945
H            2.90189919535412        1.48089147057633        0.22014018278911
H            0.57715220981170        0.69401902141885        0.45949153269324
H           -0.93286435012252       -0.06504909538561       -1.04927537585902
H           -3.15642602836403        0.96415008820398       -0.90499219954581
