78
 energy: -121.889299585762 gnorm: 0.000061107282 xtb: 6.7.1 (edcfbbe)
O           -6.48847864915267        0.12424134796961        1.92660896250216
P           -5.82576649160734        0.34793624350945        0.62424148031843
C           -6.54646276529566       -0.65249338671548       -0.71497584705997
C           -7.20919763304288       -1.81970878234884       -0.34903714932034
C           -7.70903537973761       -2.66675906382662       -1.31898957409160
C           -7.53346424785665       -2.36091615602182       -2.66157108340549
C           -6.86399607501411       -1.20257296913301       -3.02856389136953
C           -6.36509651638812       -0.35040124804686       -2.06199848836029
C           -5.98765973255418        2.08036972449947        0.05956609167645
C           -4.95333743964729        2.99614242351879        0.17702628761168
C           -5.16292808879100        4.31796008429703       -0.17885358080568
C           -6.40441953823114        4.72462578219562       -0.63988849164387
C           -7.44350184762266        3.81208860177219       -0.74189267171472
C           -7.23511151318435        2.49068127301784       -0.39081593816918
C           -4.08330638187203       -0.06730767324996        0.63039171944199
C           -3.56259464127541       -0.75546628937854        1.75058628475041
C           -2.27331003136585       -1.19060682118789        1.77363202476628
C           -1.41064167927742       -0.94347280527448        0.66233488316098
N           -0.10401826341662       -1.35799294684407        0.68594309377084
C            0.34794719137604       -2.57923848747164        1.16603756341085
C           -0.37784475647316       -3.66392825588995        1.63132597944182
C            0.32322282350585       -4.79879174199948        2.02905704470425
C            1.71320929617202       -4.84791299462327        1.94393813732877
C            2.44660190565908       -3.78361334572945        1.43857136057487
C            1.76670485636231       -2.64127498121496        1.02782469630285
C            2.17427598945963       -1.41278882580020        0.42702187087397
C            3.40524545097895       -0.89137997989567        0.05228567545227
C            3.45052465871211        0.39850435608961       -0.46156251206820
P            5.01172414340778        1.20130505063872       -0.93523106572010
O            4.84004213258329        2.23715670353098       -1.97158510780180
C            5.72044658021848        1.85697212101731        0.61284385114216
C            6.56761096867851        2.95066762482829        0.49477014322633
C            7.16306630973872        3.49115156792326        1.62054230913776
C            6.91048308972371        2.93799236181759        2.86609102834221
C            6.06007324800888        1.85003702590253        2.98552372172061
C            5.46269756633523        1.30652352915830        1.86166559058124
C            6.12890268676609       -0.14371168059999       -1.45082279014825
C            6.23425554233821       -0.38547050366928       -2.81413714022765
C            7.05902576297815       -1.39516687869345       -3.27695427171446
C            7.77908232670419       -2.16418192999775       -2.37621273904217
C            7.67937613933840       -1.91936082492783       -1.01538982365703
C            6.85606415027104       -0.90988393805284       -0.54845087023073
C            2.28832777626996        1.17088999206164       -0.60433831985508
C            1.04581628381366        0.66340898582820       -0.25068348753642
C            0.98566371095692       -0.63281561054153        0.23648227731114
C           -1.93859646047830       -0.25684775960988       -0.46717715261263
C           -3.23890413774825        0.14391187475868       -0.49066890647716
H           -7.33925327188642       -2.03177404528449        0.70372525522714
H           -8.23522515228358       -3.56567742114220       -1.03160577401299
H           -7.92094468337374       -3.02376555245118       -3.42109111407611
H           -6.73340807824012       -0.96270419922955       -4.07405290256886
H           -5.85929860481155        0.56186942408417       -2.34485899572996
H           -3.99077074917742        2.66929228392405        0.54693095339275
H           -4.35643631532682        5.03181738802082       -0.09320362093495
H           -6.56528643854893        5.75641056266820       -0.91595155491672
H           -8.41389210167446        4.13139490522489       -1.09333767046720
H           -8.03311086638074        1.76153469890633       -0.46008144361962
H           -4.21604392135162       -0.89381842754211        2.60061770481006
H           -1.85909291076965       -1.64159832151055        2.66240558696453
H           -1.45592547060484       -3.64893814135211        1.66370792532685
H           -0.22114599911142       -5.65403239060072        2.39672266175744
H            2.22782093864777       -5.74247169651229        2.26201388798880
H            3.52065746627946       -3.84113067055259        1.35653301451201
H            4.30765206017261       -1.47415464641225        0.15724351350319
H            6.74079723976464        3.37031703677144       -0.48692408796453
H            7.82180347911297        4.34211002867708        1.52705829130889
H            7.37368727058744        3.35863618899442        3.74646639447139
H            5.85963321592923        1.42463320225179        3.95810193315223
H            4.79078964706930        0.46486365728993        1.95224929063118
H            5.67089117573251        0.23577520893596       -3.49695756808626
H            7.14142208802464       -1.58092396218067       -4.33785477381774
H            8.42397034443544       -2.95250219944676       -2.73563644901548
H            8.24817088071387       -2.51454328560524       -0.31590315777736
H            6.78635321207567       -0.70676010004424        0.51077591261683
H            2.38456638633647        2.17369820370708       -0.99220314632721
H            0.16377897103979        1.27922722901580       -0.33103701909024
H           -1.31254035062727       -0.13643092581433       -1.33852799160092
H           -3.64536119612345        0.62673326271710       -1.36629427046189
