  78
       -121.94480812
 O         -6.1748395216        0.7371845594        2.2441985699
 P         -5.7475943582        0.5757879158        0.8484488245
 C         -6.6732431616       -0.7078592869       -0.0573258004
 C         -7.9873024526       -0.9202658375        0.3360939628
 C         -8.7636548201       -1.8601163558       -0.3174197823
 C         -8.2254711285       -2.5895268785       -1.3654351486
 C         -6.9114550477       -2.3835752020       -1.7545680507
 C         -6.1325199150       -1.4435071020       -1.1034039155
 C         -5.9221271362        2.0879675684       -0.1528649934
 C         -5.8897199081        3.2975189169        0.5269619606
 C         -5.9978512992        4.4873467148       -0.1701524050
 C         -6.1391432478        4.4676931820       -1.5484273518
 C         -6.1802266924        3.2600938669       -2.2275083175
 C         -6.0727617298        2.0682540052       -1.5332815444
 C         -3.9980002798        0.0895540974        0.6819096747
 C         -3.4530270513       -0.6395673081        1.7303492404
 C         -2.1466165460       -1.0805572082        1.6713151650
 C         -1.3719602693       -0.8012864543        0.5471379837
 N         -0.0548539138       -1.2673033096        0.4694902686
 C          0.3513999833       -2.5679286186        0.7084447679
 C         -0.4044158874       -3.6875726942        1.0245635843
 C          0.2593359730       -4.8892966097        1.1831464058
 C          1.6398859713       -4.9859037505        1.0232236705
 C          2.3939594872       -3.8808308974        0.6830498736
 C          1.7483262550       -2.6623054046        0.5191587600
 C          2.1994335769       -1.3483070173        0.1541327873
 C          3.4484289721       -0.8228423173       -0.1375444430
 C          3.5394811953        0.5247041605       -0.4424844694
 P          5.1182673694        1.3466531733       -0.8248843914
 O          4.9914528209        2.4592093824       -1.7770630189
 C          5.8012764658        1.8453940883        0.7913024579
 C          6.6812336106        2.9185066856        0.7975429032
 C          7.2582611108        3.3355881895        1.9833624877
 C          6.9548710835        2.6789408854        3.1651519867
 C          6.0710783046        1.6114310479        3.1615098633
 C          5.4926927072        1.1918756993        1.9766761450
 C          6.2215951048        0.0138427520       -1.4010720891
 C          6.3680434007       -0.1331013775       -2.7730784929
 C          7.1703462900       -1.1386213910       -3.2818599665
 C          7.8274548696       -1.9992518038       -2.4175687263
 C          7.6882531379       -1.8492918356       -1.0467142184
 C          6.8870985385       -0.8440846355       -0.5351662373
 C          2.4048705972        1.3396538157       -0.4418178596
 C          1.1533095035        0.8371452306       -0.1524522654
 C          1.0517524081       -0.5192525205        0.1312533751
 C         -1.9153727399       -0.0598191009       -0.5002683472
 C         -3.2202418840        0.3868642909       -0.4295121334
 H         -8.3792598740       -0.3460779988        1.1634524952
 H         -9.7859368825       -2.0248564329       -0.0108245597
 H         -8.8287017180       -3.3242554751       -1.8777330195
 H         -6.4915458935       -2.9583392549       -2.5673060907
 H         -5.1040946747       -1.2883222185       -1.3982750295
 H         -5.7893996964        3.2840232674        1.6028984928
 H         -5.9737381349        5.4283230005        0.3591181151
 H         -6.2241428095        5.3949241080       -2.0953756568
 H         -6.2993965289        3.2473377836       -3.3012021150
 H         -6.1191970892        1.1240254354       -2.0577302592
 H         -4.0677666886       -0.8388352810        2.5960174396
 H         -1.7136347213       -1.6286157398        2.4944842877
 H         -1.4769193413       -3.6285452921        1.1321324027
 H         -0.3067325762       -5.7741882139        1.4326822174
 H          2.1208685528       -5.9428016471        1.1581579064
 H          3.4612755646       -3.9569768157        0.5397485366
 H          4.3261220723       -1.4514881727       -0.1322144652
 H          6.8932312994        3.4194714168       -0.1361581641
 H          7.9433351953        4.1706020546        1.9876809991
 H          7.4035621812        3.0023967582        4.0927535833
 H          5.8309495115        1.1054008127        4.0853850020
 H          4.7951172846        0.3660066918        1.9700985934
 H          5.8524235729        0.5575241655       -3.4247709663
 H          7.2839329716       -1.2521574125       -4.3499406231
 H          8.4547119298       -2.7852062327       -2.8115596261
 H          8.2078004571       -2.5167952398       -0.3744983919
 H          6.7852292119       -0.7167166656        0.5333423644
 H          2.5325746693        2.3846984709       -0.6837641413
 H          0.2870151827        1.4807505045       -0.1368976754
 H         -1.3141559566        0.1472653437       -1.3729538297
 H         -3.6361578300        0.9678120461       -1.2397700876
