  126
       -186.46946808
 C         -6.9334166161       -8.2866503196        0.0805003070
 C         -5.3953925459       -8.2639071031        0.0045723638
 C         -4.8460620443       -9.7010185341       -0.0629328425
 C         -4.9819611770       -7.5272310182       -1.2535353220
 C         -5.3905118068       -8.0006632925       -2.4924170290
 C         -5.0401011352       -7.3675248996       -3.6708444947
 C         -4.2552773019       -6.2273746329       -3.6229637590
 C         -3.8341118920       -5.7351167577       -2.4075627986
 C         -4.1907374659       -6.3714149723       -1.2120337849
 N         -3.7544003109       -5.8517206536       -0.0104442082
 C         -2.9706902371       -4.6611519864       -0.0182355735
 C         -3.6002863352       -3.4173056246       -0.0128073218
 C         -2.8477341671       -2.2664643951       -0.0237875464
 C         -1.4472350072       -2.3312807515       -0.0389544916
 C         -0.6635380305       -1.1182305452       -0.0463989220
 N         -1.3083918981        0.0526778969       -0.0512946275
 C         -0.5651291487        1.1637175362       -0.0496998887
 C         -1.2391843385        2.4406828039       -0.0489338889
 C         -0.5084487679        3.6365435783       -0.0253493100
 C         -1.1564831931        4.8501808979       -0.0139310307
 C         -2.5496174028        4.8965358935       -0.0285111360
 N         -3.2232144713        6.1522153684       -0.0054584269
 C         -3.6379964934        6.6636042680        1.2074284518
 C         -3.3727756891        5.9503500132        2.3831315602
 C         -3.7778720654        6.4317374329        3.6083123573
 C         -4.4537409309        7.6380457904        3.6864417367
 C         -4.7109475375        8.3483884640        2.5281840031
 C         -4.3161981347        7.8877131491        1.2800573519
 C         -4.6213234295        8.7119969686        0.0456193000
 C         -3.9327518933       10.0823281622        0.1860364368
 C         -6.1469439291        8.8925732930       -0.0629015299
 C         -4.1212210869        8.0438802062       -1.2192476246
 C         -4.3231679274        8.6588537303       -2.4467814249
 C         -3.8946058325        8.0883781946       -3.6313718501
 C         -3.2458881026        6.8650091543       -3.6016091801
 C         -3.0298169845        6.2321853919       -2.3975040497
 C         -3.4574868614        6.8098689662       -1.1955860360
 C         -3.2871017835        3.7137931438       -0.0580525590
 C         -2.6398345888        2.5005685425       -0.0671633768
 N          0.7714589076        1.1380946311       -0.0438441639
 C          1.3600296251       -0.0628401463       -0.0424884768
 C          2.8030551957       -0.1233640602       -0.0341091132
 C          3.4647839196       -1.3592161555       -0.0251951733
 C          4.8392100756       -1.4153240542       -0.0120701094
 C          5.5850504255       -0.2375727396       -0.0084512625
 N          7.0092103314       -0.2973390441        0.0081104168
 C          7.6655731192       -0.2686889325        1.2215397927
 C          6.9221834788       -0.1767922272        2.4049364717
 C          7.5474585226       -0.1435542537        3.6316205641
 C          8.9293747659       -0.2027595671        3.7033871075
 C          9.6662826917       -0.2975464355        2.5370962638
 C          9.0639771284       -0.3329736182        1.2873547276
 C          9.9229409817       -0.4449344865        0.0440112327
 C         10.8720832716        0.7664072112       -0.0127360146
 C         10.7341166095       -1.7516312595        0.1227760705
 C          9.0880958866       -0.4660014138       -1.2204466536
 C          9.7142028102       -0.5614370394       -2.4552574773
 C          9.0002873623       -0.5788921983       -3.6394677708
 C          7.6182425114       -0.4962491932       -3.6017951350
 C          6.9695726731       -0.4020679706       -2.3905168854
 C          7.6891983531       -0.3890205391       -1.1891129108
 C          4.9386152450        0.9975026063       -0.0193558266
 C          3.5642533301        1.0539996134       -0.0317044153
 N          0.6703969124       -1.2090048347       -0.0447587323
 C         -0.8256762483       -3.5875264245       -0.0436881028
 C         -1.5790154691       -4.7389969500       -0.0342049946
 C         -4.0754970978       -6.4345542067        1.1982687800
 C         -3.6144094533       -5.8545521558        2.3867205318
 C         -3.9160217329       -6.4130414399        3.6090363207
 C         -4.6855307985       -7.5629898501        3.6710282425
 C         -5.1453334466       -8.1362861611        2.4995867843
 C         -4.8581726972       -7.5956913864        1.2541190983
 H         -7.3569113175       -8.7717229385       -0.7941775379
 H         -7.2696413537       -8.8221943884        0.9637182529
 H         -7.3164978444       -7.2691704319        0.1288638053
 H         -5.1280730375      -10.2649757985        0.8214683415
 H         -5.2296054390      -10.2212307013       -0.9360384151
 H         -3.7597574519       -9.6793274268       -0.1251991771
 H         -6.0003886819       -8.8895636068       -2.5467268971
 H         -5.3760228245       -7.7621237963       -4.6174209265
 H         -3.9704754021       -5.7207801847       -4.5325881016
 H         -3.2213401595       -4.8482044631       -2.3714795545
 H         -4.6799353742       -3.3738158651       -0.0008136302
 H         -3.3177276237       -1.2957720543       -0.0196907924
 H          0.5686412470        3.5821672500       -0.0122504432
 H         -0.5990051349        5.7756161417        0.0075655551
 H         -2.8435604659        5.0124047070        2.3245522312
 H         -3.5648513821        5.8656275734        4.5022906239
 H         -4.7757273402        8.0249232106        4.6410732970
 H         -5.2338540110        9.2895546127        2.6062947786
 H         -4.2790348987       10.5999597931        1.0760626208
 H         -2.8554169058        9.9484411990        0.2633663838
 H         -4.1398153918       10.7095584005       -0.6762618755
 H         -6.4053703906        9.4915895237       -0.9313555226
 H         -6.6280794339        7.9211686209       -0.1596644008
 H         -6.5423884358        9.3850747349        0.8207422943
 H         -4.8302068976        9.6108398407       -2.4871871815
 H         -4.0685827341        8.5935897150       -4.5689550230
 H         -2.9092335631        6.4023371583       -4.5170284176
 H         -2.5269434994        5.2781287385       -2.3753635103
 H         -4.3663486323        3.7665496481       -0.0705254309
 H         -3.1942473835        1.5757513358       -0.0885261505
 H          2.8722859083       -2.2604262497       -0.0272885189
 H          5.3548128982       -2.3649665517       -0.0042913927
 H          5.8458444378       -0.1326128299        2.3502542002
 H          6.9558235386       -0.0720909280        4.5316593642
 H          9.4301125741       -0.1770474373        4.6589893882
 H         10.7421562030       -0.3457624141        2.6097086063
 H         11.5193929138        0.7103822039       -0.8831604350
 H         10.2942073737        1.6866284476       -0.0726392711
 H         11.4970021731        0.8106797033        0.8745584887
 H         10.0588378735       -2.6038250973        0.1685698848
 H         11.3711912919       -1.8649139999       -0.7496553529
 H         11.3627825134       -1.7638257497        1.0084830524
 H         10.7907481499       -0.6240852174       -2.5018100292
 H          9.5192796726       -0.6546141542       -4.5826002999
 H          7.0450108973       -0.5048313186       -4.5164039670
 H          5.8933271297       -0.3363229789       -2.3618328581
 H          5.5302775999        1.9017284162       -0.0169457385
 H          3.0476481207        2.0007089845       -0.0401837483
 H          0.2520305360       -3.6292890135       -0.0555569068
 H         -1.1058505130       -5.7104644904       -0.0380125680
 H         -3.0165278304       -4.9579932510        2.3394774188
 H         -3.5507272779       -5.9503268174        4.5132942531
 H         -4.9277034224       -8.0096741005        4.6230770981
 H         -5.7459811805       -9.0307504283        2.5647276004
