52
 energy: -80.267972582921 gnorm: 0.000072708582 xtb: 6.7.1 (edcfbbe)
C           -0.00153746454824       -2.26589616395317        2.24810290660780
C            1.20131570620377       -1.77407858029862        1.77924703964062
C            1.20528335063186       -0.73389159284647        0.81611301958058
N            2.41426337024106       -0.26160969451738        0.31726889126581
C            2.78111431565454        1.06544060669291        0.17548353820554
C            2.10332226962314        2.21095485799219        0.55048175106314
C            2.71665549557321        3.43997461984459        0.32557407231940
C            3.98144823911431        3.51177531098793       -0.25550174027511
C            4.68141601027421        2.37028962120102       -0.60611532492011
C            4.09018423634630        1.12670215493382       -0.38255816707152
C            4.51631996022616       -0.21985847850863       -0.58079488789201
C            5.67531383664592       -0.80154806099347       -1.09404774100377
C            5.74219061099211       -2.18168640913410       -1.18421407661951
C            4.67983150886577       -2.98973934825013       -0.78409557184358
C            3.51528976811128       -2.43357945674014       -0.26110760897956
C            3.45080773445878       -1.05663341571663       -0.14139517974865
C           -0.00015255959219       -0.21166587188930        0.36132109471874
C           -1.20630180311365       -0.73237724636291        0.81596465474689
N           -2.41466740951836       -0.25854471430070        0.31713024773349
C           -2.77985160219230        1.06897728248287        0.17533379349342
C           -2.10048722185714        2.21366245175754        0.55001906781267
C           -2.71231796185171        3.44344251244405        0.32519000738248
C           -3.97719253827911        3.51681315895921       -0.25551583494361
C           -4.67871834298453        2.37618992606145       -0.60581466379696
C           -4.08901296209118        1.13186967101765       -0.38231392469183
C           -4.51697228212867       -0.21415629968225       -0.58024636437268
C           -5.67692342085788       -0.79440288261533       -1.09296410804030
C           -5.74563988494730       -2.17446104147620       -1.18292485979196
C           -4.68416558334206       -2.98385082086023       -0.78314766693501
C           -3.51870008256905       -2.42914180067775       -0.26069131596300
C           -3.45239524576278       -1.05226735976054       -0.14113279364904
C           -1.20371053602440       -1.77258890272412        1.77908244814686
H           -0.00207313027405       -3.04425118934740        2.99686053026712
H            2.13901338446550       -2.13405393251120        2.17087150684501
H            1.13362579135163        2.16128320554713        1.01984324688155
H            2.20523224489814        4.34724496234888        0.60834027629045
H            4.42737797826641        4.48157054180538       -0.42404964129585
H            5.66810000293287        2.43645524006573       -1.03864367521242
H            6.49939274470437       -0.18435042630994       -1.41797607585130
H            6.63272529104007       -2.64499034490461       -1.58434663423814
H            4.75500000319623       -4.06137107968789       -0.88726457925455
H            2.68574904644611       -3.06307484523595        0.02255802991361
H            0.00038457293197        0.54886562950940       -0.40503766918064
H           -1.13070367703289        2.16281085070082        1.01907229598890
H           -2.19964422285871        4.35008447291342        0.60771620264756
H           -4.42193902817427        4.48716395120907       -0.42400240196324
H           -5.66546054885944        2.44356476974601       -1.03802917436358
H           -6.50033243698368       -0.17618120138140       -1.41665705643255
H           -6.63692804633513       -2.63665097621403       -1.58266859341484
H           -4.76077178099335       -4.05539659109440       -0.88617832863735
H           -2.68985097576161       -3.05967208106813        0.02270045960342
H           -2.14189136046002       -2.13138369543751        2.17063268273921
