52
 energy: -80.267975495162 gnorm: 0.000063117794 xtb: 6.7.1 (edcfbbe)
C           -0.00060861485353       -2.29416467284868        2.21867824888888
C            1.20223581641413       -1.79735280751435        1.75511285272929
C            1.20624406846178       -0.74881060394239        0.80079835097113
N            2.41526445441488       -0.26887887966612        0.30970391555965
C            2.77625392193351        1.06094064983671        0.17698205628369
C            2.09177446119812        2.20114209170507        0.55590767763342
C            2.69944575110011        3.43444190908381        0.33962489825041
C            3.96583793281831        3.51586108398529       -0.23665463615660
C            4.67318911120647        2.37971353694390       -0.58961340960955
C            4.08762017501142        1.13200649296336       -0.37431667974276
C            4.52241204939422       -0.21122262692375       -0.57587077738529
C            5.68864297400839       -0.78364645242642       -1.08298432627737
C            5.76519566872062       -2.16294726649768       -1.17712428131941
C            4.70485836175450       -2.97895796558154       -0.78785320734760
C            3.53297869646585       -2.43203857889657       -0.27166120266704
C            3.45900538377413       -1.05600805768283       -0.14661928546016
C            0.00045122643939       -0.22432582634150        0.34924087825641
C           -1.20584026220239       -0.74831810035365        0.79997032631343
N           -2.41445204155409       -0.26787407271637        0.30829369398655
C           -2.77567731781776        1.06201773662067        0.17684364660779
C           -2.09114884672268        2.20201158573390        0.55622761740333
C           -2.69925143445795        3.43540745872056        0.34148266327656
C           -3.96608793839676        3.51707052894705       -0.23378404755826
C           -4.67337350992677        2.38110942936649       -0.58745383602446
C           -4.08735005535593        1.13329822076134       -0.37377162629103
C           -4.52192048183543       -0.20978643479998       -0.57651316884196
C           -5.68820757982846       -0.78205274498722       -1.08378215409378
C           -5.76434791328037       -2.16127446033403       -1.17936096609861
C           -4.70360611456679       -2.97740364326452       -0.79142037764422
C           -3.53170379000096       -2.43066901551620       -0.27501765169432
C           -3.45815830455047       -1.05476831297642       -0.14849413905948
C           -1.20291628913126       -1.79696640239748        1.75417908542173
H           -0.00102234495035       -3.07914912591152        2.96048747396153
H            2.13975086434061       -2.15926518729021        2.14527944007956
H            1.12119263170346        2.14428008027999        1.02243972810623
H            2.18224874747092        4.33749502570810        0.62538186352277
H            4.40712252870311        4.48882634610383       -0.39907036044747
H            5.66128223371370        2.45298268171334       -1.01774717789776
H            6.51103888764507       -0.15997883098764       -1.39871734293452
H            6.66173764459895       -2.61922064132395       -1.57189876044934
H            4.78761738855118       -4.04972933958529       -0.89415196615136
H            2.70532675023975       -3.06797473506835        0.00293658583939
H            0.00085252453941        0.54190910261307       -0.41137786548037
H           -1.12018437165367        2.14497061346247        1.02193261153685
H           -2.18202222275041        4.33830854713005        0.62765272974777
H           -4.40773197694550        4.49008476609503       -0.39492854430228
H           -5.66175115300827        2.45454838759621       -1.01489691868811
H           -6.51093705703233       -0.15831353896889       -1.39848986417928
H           -6.66090161335288       -2.61740321748130       -1.57427297879050
H           -4.78604531533545       -4.04807561590014       -0.89893010753833
H           -2.70373450589864       -3.06660792331204       -0.00136953699716
H           -2.14088407276587       -2.15869104532040        2.14344552686990
