  66
        -93.76856011
 C          6.4174295095        1.8292350504       -0.1618408867
 C          6.0893351568        0.5171439213        0.5617148853
 C          6.9380816365        0.4205640868        1.8276289752
 O          4.7091220692        0.5761843090        0.9193689608
 B          3.9961307269       -0.2077108210        0.0581584684
 C          2.4356436800       -0.2786459495        0.0334471212
 C          1.6625075320        0.5025019703        0.8942978435
 C          0.2842017154        0.4457999404        0.8719611782
 C         -0.3745346756       -0.4002594207       -0.0192034822
 C         -1.8428613548       -0.4948324406       -0.0405872776
 C         -2.6440699875        0.5934295479       -0.0194038865
 C         -2.1236209845        1.9629007620       -0.1647770202
 C         -1.1900260561        2.2780686191       -1.1502095974
 C         -0.7289834444        3.5729506097       -1.2896550496
 C         -1.1921078515        4.5736248251       -0.4509956357
 C         -2.1292459759        4.2732853516        0.5234102754
 C         -2.5973483984        2.9802747304        0.6615732233
 C         -4.1039964936        0.4946238200        0.1472520821
 C         -4.9514786939        1.2499578962       -0.6610308175
 C         -6.3226973888        1.1747275126       -0.5054238013
 C         -6.8686131048        0.3564321305        0.4694348995
 C         -6.0338715796       -0.3831326205        1.2912415015
 C         -4.6629282154       -0.3159449805        1.1333287792
 C         -2.3777187466       -1.8663560573       -0.0882302440
 C         -1.8393181719       -2.8534819551        0.7349363187
 C         -2.3229069725       -4.1473603074        0.6886317511
 C         -3.3401791787       -4.4793385898       -0.1905720889
 C         -3.8682185857       -3.5095813982       -1.0271140041
 C         -3.3922511551       -2.2134093586       -0.9780807350
 C          0.3894272436       -1.1988899099       -0.8695819721
 C          1.7674093837       -1.1311714808       -0.8466501378
 O          4.8027351631       -0.9236962121       -0.7799040152
 C          6.1607359522       -0.7393407103       -0.3822727918
 C          6.5868419028       -2.0171603800        0.3516562445
 C          7.0333010074       -0.5639250278       -1.6233634092
 H          6.1884311868        2.6575039200        0.5050113494
 H          7.4673452422        1.8751250580       -0.4351985157
 H          5.8000863039        1.9340773988       -1.0505938138
 H          6.8277647040        1.3408616989        2.3958840085
 H          7.9854435575        0.2901770956        1.5693271018
 H          6.6141436045       -0.4026648708        2.4561454896
 H          2.1653870062        1.1580820099        1.5893639062
 H         -0.2943568113        1.0504573545        1.5554711730
 H         -0.8354320207        1.5033046331       -1.8138459136
 H         -0.0066133291        3.8039710900       -2.0590149725
 H         -0.8281884282        5.5847365895       -0.5600642858
 H         -2.4984256296        5.0505115767        1.1769884048
 H         -3.3281309363        2.7468209357        1.4232878318
 H         -4.5262089181        1.8879212367       -1.4231826312
 H         -6.9684650523        1.7584061359       -1.1455996729
 H         -7.9402315038        0.3000439742        0.5925894174
 H         -6.4541087917       -1.0132074005        2.0617513597
 H         -4.0147641218       -0.8853146679        1.7832243537
 H         -1.0451465179       -2.5948368188        1.4211448071
 H         -1.9032240493       -4.9008909387        1.3394326892
 H         -3.7161982954       -5.4912035701       -0.2280312321
 H         -4.6532214387       -3.7660039965       -1.7237202310
 H         -3.7980077292       -1.4628832912       -1.6404832048
 H         -0.1105593187       -1.8647982294       -1.5595496056
 H          2.3514633844       -1.7453106490       -1.5157542041
 H          7.6292255632       -1.9684505811        0.6517446704
 H          5.9590570254       -2.1781847517        1.2244789196
 H          6.4506866411       -2.8621135642       -0.3195529134
 H          7.0245170531       -1.4897687283       -2.1932146433
 H          6.6533195876        0.2268044012       -2.2620764451
 H          8.0563440304       -0.3383232939       -1.3351672304
