66
 energy: -93.768577277299 gnorm: 0.000032646113 xtb: 6.7.1 (edcfbbe)
C            6.40960900757710        1.83460713385073       -0.16137270851592
C            6.08629974801980        0.52178326634223        0.56322662073882
C            6.93722403903773        0.42734123182802        1.82768733618392
O            4.70616355275970        0.57691157390024        0.92221117451112
B            3.99445400377926       -0.20431739455549        0.05720484092624
C            2.43424374205746       -0.27820247402107        0.03177575377951
C            1.65934698656243        0.49756796778647        0.89591628515448
C            0.28126374544851        0.43824783206136        0.87252348087863
C           -0.37540907680584       -0.40494851651504       -0.02294785183897
C           -1.84378477434697       -0.49942687632198       -0.04506861263767
C           -2.64309055500613        0.59042447388095       -0.02239432522178
C           -2.11916176445522        1.95837805745071       -0.16926036544579
C           -1.18438429366050        2.26959622163710       -1.15490648398165
C           -0.71840305171379        3.56259858114424       -1.29513038564779
C           -1.17791359543858        4.56556341656198       -0.45723407152807
C           -2.11659976496807        4.26937790835355        0.51696159975496
C           -2.58945371998267        2.97819893059018        0.65605755419100
C           -4.10252967523990        0.49446178322501        0.14912741783790
C           -4.95199701409292        1.25315027031482       -0.65389883648441
C           -6.32268343927516        1.18017786605055       -0.49247836799682
C           -6.86603650209793        0.36063703149822        0.48279116479676
C           -6.02920477075981       -0.38222020436928        1.29951144027909
C           -4.65885892868954       -0.31697823603894        1.13605483022670
C           -2.38020182895234       -1.87008356303456       -0.09318428917097
C           -1.83824853496456       -2.85989629218154        0.72453381368103
C           -2.32467294701680       -4.15272868981947        0.67912344855879
C           -3.34869240664388       -4.48109084870078       -0.19360655298501
C           -3.87998003124609       -3.50889737348466       -1.02523901585941
C           -3.40084076172296       -2.21386225991184       -0.97741169590356
C            0.39022060606826       -1.19894792250258       -0.87597112884053
C            1.76811697194948       -1.12854447929074       -0.85202292374299
O            4.80249824051489       -0.91553506056025       -0.78366133711681
C            6.15949205731523       -0.73386870668565       -0.38102042615067
C            6.57914434270021       -2.01240620181131        0.35545340285265
C            7.03794909494677       -0.55967571001753       -1.61789202061069
H            6.17713697689110        2.66236649891826        0.50477805129540
H            7.45932775682198        1.88445673012563       -0.43449087792304
H            5.79190321702479        1.93640129359407       -1.05019668644847
H            6.82510222927127        1.34705688418869        2.39651708614028
H            7.98452678313713        0.30038014016374        1.56735540842934
H            6.61698388019833       -0.39720967636623        2.45633751559120
H            2.16067979793954        1.15066880845329        1.59442110683724
H           -0.29905222912122        1.03849053629391        1.55842926558931
H           -0.83253868667854        1.49323516908482       -1.81811615119962
H            0.00514572524810        3.79026304691172       -2.06438339577015
H           -0.81000087031069        5.57517951610248       -0.56672025066633
H           -2.48295548457665        5.04843194852548        1.16994484623773
H           -3.32078099315691        2.74794334286939        1.41821217448771
H           -4.52878668332444        1.89208620946112       -1.41637929111696
H           -6.97013738820328        1.76623756127483       -1.12876590025583
H           -7.93723400048886        0.30530327192679        0.60976714696184
H           -6.44728817604040       -1.01368057284135        2.07003995718156
H           -4.00897831975531       -0.88855457732130        1.78228550807060
H           -1.03921361077301       -2.60401941356026        1.40610987585035
H           -1.90207581620804       -4.90826663022017        1.32569868703127
H           -3.72729107771857       -5.49203702819428       -0.22998336305922
H           -4.67016221469931       -3.76246678938575       -1.71702657080806
H           -3.80938486602919       -1.46160093168437       -1.63610843118154
H           -0.10817727256020       -1.86294144796692       -1.56893210083165
H            2.35379226608880       -1.73864741089111       -1.52339502826585
H            7.61955299781133       -1.96557467225709        0.66251809624877
H            5.94507221086254       -2.17223544325680        1.22398761141477
H            6.44596362396524       -2.85706091219040       -0.31672664757644
H            7.02912923114297       -1.48495056527888       -2.18870037152092
H            6.66341336183532        0.23287801236031       -2.25758357978035
H            8.06030946545397       -0.33735756042686       -1.32451122154286
