66
 energy: -93.768561101431 gnorm: 0.000043617898 xtb: 6.7.1 (edcfbbe)
C            6.38096518760512        1.55362673518216        1.32675273281817
C            5.63955024469197        0.29874308225601        0.87166804048700
C            6.08010160415261       -0.88658977312931        1.74009819558355
O            4.23891962321599        0.46984646467881        1.08542791319065
B            3.56458737072479       -0.04429045210414        0.01465115671115
C            2.01002507232248       -0.18490499078122       -0.04822295734178
C            1.20326330077889        0.25204558362418        1.00404319519144
C           -0.17033859220347        0.13683488663217        0.95041697233276
C           -0.79001784662825       -0.42709600482149       -0.16405156875404
C           -2.25246255873860       -0.58082646773787       -0.22413114521894
C           -3.10022134935116        0.41597869297000        0.11535629615547
C           -2.63832263627112        1.78919770149403        0.37674427168018
C           -1.72833286695423        2.41578444482782       -0.47271791796120
C           -1.32039344097709        3.71288233495300       -0.22839651725479
C           -1.81418482584556        4.40634558704405        0.86448477422958
C           -2.72882138464368        3.79733547475747        1.70738121069970
C           -3.14367931718522        2.50195355179253        1.46250258324597
C           -4.55148800207158        0.20698646809587        0.25032491564812
C           -5.44474166029928        1.13008572703415       -0.29014647700834
C           -6.80842332028707        0.95118779713963       -0.15400366485175
C           -7.30140122799841       -0.14352286838129        0.53637831076955
C           -6.42128462160362       -1.05659863861158        1.09393519483921
C           -5.05766877143829       -0.88444974959542        0.95366531392847
C           -2.72479532117159       -1.89913490453329       -0.67884941273984
C           -2.12517777276579       -3.06038655655340       -0.19487827137478
C           -2.55118809529219       -4.30274535070586       -0.62519936864381
C           -3.57150602597689       -4.40511363353202       -1.55609477610984
C           -4.16002641353811       -3.25605593196768       -2.05847862205229
C           -3.74127105076815       -2.01270105177487       -1.62537404732245
C            0.00839960282198       -0.88721586714391       -1.21035803397111
C            1.38120587551840       -0.75775174971821       -1.15471587427718
O            4.40471043090567       -0.42196916651780       -0.99410410582393
C            5.73008119149539       -0.00433598870654       -0.66861491997509
C            6.71873151267862       -1.10281404021432       -1.05256270935137
C            6.02026031864677        1.24696388360455       -1.50720215854001
H            6.26502357679264        1.65977720071598        2.40253992109512
H            7.43901169250821        1.47022971342248        1.09363844762426
H            5.97450516037627        2.44293631777569        0.85609737208356
H            5.83385183174325       -0.66559537402406        2.77620079050552
H            7.14942020918034       -1.05685352780155        1.65933965335134
H            5.54070704560768       -1.78545775122601        1.45180515964070
H            1.67618963398412        0.68557264784851        1.87246345007053
H           -0.77561075700621        0.47262604926928        1.78014227719046
H           -1.35027460194517        1.88327819670365       -1.33287219338925
H           -0.61560273972331        4.18695952789957       -0.89595395406173
H           -1.49160890109651        5.41934883342634        1.05535277145877
H           -3.12169127126463        4.33496309773973        2.55833654978067
H           -3.85620718735258        2.02707649701196        2.12244477874094
H           -5.06094418162892        1.98436414872139       -0.83016503661390
H           -7.48992018989532        1.66964141950449       -0.58633352336944
H           -8.36717621259441       -0.28165080645222        0.64449140230570
H           -6.80021602596839       -1.90578785120486        1.64397490654004
H           -4.37417684254841       -1.59175132175864        1.40002118712644
H           -1.32910093895016       -2.98125842031668        0.53207585068011
H           -2.08414410091494       -5.19533786892487       -0.23451038185259
H           -3.90280355101343       -5.37625751341533       -1.89343357589810
H           -4.94767407826942       -3.32965601445192       -2.79431676384732
H           -4.19417446724062       -1.11897283904985       -2.02885429869082
H           -0.46093586129476       -1.33431648560308       -2.07600322128114
H            1.99200707779634       -1.10491418199856       -1.97472152133533
H            7.72189645537523       -0.83374359751846       -0.73314228502296
H            6.44024597208330       -2.05425329213021       -0.61115915323830
H            6.71311658272059       -1.21904553284069       -2.13353124896717
H            5.90050932948582        0.99341185877095       -2.55809099069643
H            5.30833245124318        2.03332710516515       -1.26888387257878
H            7.03239065629220        1.60404353513730       -1.34268102636994
