68
 energy: -113.497995544328 gnorm: 0.000089777813 xtb: 6.7.1 (edcfbbe)
C            3.29749233888381       -1.29573188821877       -2.60306113103452
C            2.56287737823051       -2.28996462604342       -1.97647042153151
C            1.26851560627064       -2.03729600289103       -1.56512380807661
C            0.70599194073757       -0.77929417625933       -1.76367584172795
C           -0.63790395405161       -0.50671805892094       -1.25646798808917
N           -0.93050557469689        0.69963544339676       -0.83402880425999
C           -2.10002732734868        1.02373928362502       -0.20997188849335
C           -2.15601100464494        2.26496432336464        0.49702232096313
C           -3.36314131538623        2.88762157656105        0.86504039528310
C           -3.38019577893096        4.11183794018607        1.48872935413191
C           -2.19254554953116        4.77512282892633        1.78274320668507
C           -0.98816789229155        4.18333745692222        1.44631292276168
C           -0.95135762184190        2.94428532489191        0.82705748595080
N            0.30202362406862        2.38238396511340        0.53554673457251
C            1.27416991252612        3.00789301760694       -0.20984688564807
C            1.21027760596755        4.20258327073612       -0.91605231097794
C            2.33747515094680        4.59871443497789       -1.61034616701170
C            3.49997088598808        3.82889509233133       -1.61127593833621
C            3.56474362666546        2.62888261639762       -0.92669962720779
C            2.44362315300453        2.21150907331715       -0.22690085619616
C            2.13838963125628        1.04603150427049        0.55056727948750
C            2.78921050789619       -0.13910575916915        0.84724646081831
O            4.02184716823101       -0.52995537910040        0.44144439965675
C            4.19345213070879       -1.79440162103534        0.92111711234839
C            5.29889101007572       -2.60134318176228        0.73108205792159
C            5.26843944710454       -3.86309658646567        1.30025482745157
C            4.17018734180554       -4.30128010066854        2.03523280416818
C            3.06648626395490       -3.49298844455398        2.22582475920695
C            3.07375728351629       -2.22292991896279        1.66311928470911
C            2.14521882527870       -1.12732809876278        1.61884914601563
C            0.86673890731641       -0.91505423859758        2.13787226774554
C            0.20091488708705        0.25761884887762        1.85443112182531
C            0.81842002232612        1.20141968338372        1.03266499174874
C           -3.09492597780937        0.02018411121927       -0.21105756576126
S           -4.72366684830565        0.05099970444110        0.40446434668092
C           -4.95630698501373       -1.63402956082126       -0.01697552431823
C           -6.10056676244682       -2.37941601528981        0.18557270629073
C           -6.10335747884750       -3.70175589791788       -0.22451980212032
C           -4.97718368837523       -4.26432511193081       -0.82560609636108
C           -3.83473452921666       -3.52427265332670       -1.02824692274848
C           -3.81066683676374       -2.18447392019521       -0.62614801029321
C           -2.75419550821091       -1.24110818206062       -0.72211308526107
N           -1.51864821731292       -1.48954603219805       -1.21482337508158
C            1.44580192557213        0.21469735568432       -2.39573458542470
C            2.73452351606794       -0.04855511489724       -2.81926460758763
H            4.31034784348109       -1.49399124359902       -2.92132007602523
H            3.00386644055666       -3.26079243286746       -1.80199141699381
H            0.68420592787493       -2.79925974405296       -1.07178710917584
H           -4.29791151488375        2.41164649670018        0.61857619617352
H           -4.32586571003676        4.56612496234521        1.74353684330094
H           -2.20640639812917        5.73382675464712        2.27657834162266
H           -0.05350383550290        4.66738859164578        1.69229864706476
H            0.30852732253343        4.79565308991830       -0.92584485072705
H            2.31735136957407        5.52391320008617       -2.16667638529972
H            4.35996069954690        4.17675303295356       -2.16402740403085
H            4.45662728242068        2.02193562241863       -0.93380044876147
H            6.14544572524908       -2.25575748034490        0.15985426067241
H            6.11436665428465       -4.52112701631005        1.17051966748685
H            4.18509396982950       -5.29285993657746        2.46241749972249
H            2.21597219828788       -3.83532578297279        2.79499778284637
H            0.40171223121315       -1.67340218506271        2.74808041700508
H           -0.79256431217862        0.43593573872993        2.23644046193783
H           -6.96684450254165       -1.93757027793910        0.65345982008675
H           -6.98745865171889       -4.30274863030039       -0.07608181849834
H           -5.00713476591183       -5.29784133931536       -1.13782975995405
H           -2.95847191646222       -3.94714978791939       -1.49416118169485
H            0.99984848693164        1.18522654996224       -2.55361535784894
H            3.30465955006828        0.72558748692182       -3.31120856595187
