68
 energy: -113.570227684774 gnorm: 0.000078685342 xtb: 6.7.1 (edcfbbe)
C            2.75041679041651        2.88294080542471       -1.47509174646368
C            2.54319344811889        1.66137197963638       -2.09581417181015
C            1.33731943022689        1.00406913666866       -1.94866707183047
C            0.31841880800080        1.57697699361061       -1.19121232244623
C           -0.94526424544929        0.86652341776748       -0.99862332993994
N           -0.91858713000059       -0.45357881459063       -1.17689229909581
C           -2.00073319564846       -1.17162052474630       -0.92285140971135
C           -1.83634445726920       -2.63485282389426       -0.89857156205675
C           -2.67921451426294       -3.49289979523790       -1.58924423888279
C           -2.45482510075144       -4.85865906361585       -1.56318028413968
C           -1.39077574174846       -5.37534943515645       -0.84304056375423
C           -0.56012701672038       -4.53226161104717       -0.12390710702398
C           -0.78165587732197       -3.16386314574416       -0.14002953917676
N            0.01815518653449       -2.28866213021961        0.62035733441043
C           -0.50547096224146       -1.35377179184517        1.49278947830476
C           -1.75892428185717       -1.31600616656296        2.08553238029781
C           -2.05117283093171       -0.23901038810528        2.90076934510769
C           -1.11783686834811        0.76872779388760        3.13601078146148
C            0.14299901403329        0.71912264360739        2.57550591008546
C            0.45497186581215       -0.35091399353267        1.74824354402054
C            1.60662679582462       -0.70087460995923        0.97207769156063
C            2.84204562405014       -0.12471447378807        0.71992019058231
O            3.33996057756638        1.02772166740883        1.23736941856883
C            4.56134399841193        1.20247891977093        0.66161547596177
C            5.42838516290315        2.25743898978754        0.87679457317001
C            6.62438870027712        2.24887605329384        0.18040991490549
C            6.94359969575213        1.21891026816425       -0.70019748451578
C            6.07757077721640        0.16402985375046       -0.91246508598360
C            4.87073045113991        0.15168614500356       -0.22577864957318
C            3.73266013313442       -0.72576872553759       -0.18750670483835
C            3.39660623748881       -1.90626609468528       -0.85281129926980
C            2.17150901220320       -2.49333717328279       -0.62342465438391
C            1.29490020516913       -1.89162805117240        0.27722616634945
C           -3.18595902480894       -0.52309937869911       -0.58492991639821
S           -4.74907065129634       -1.18597309552330       -0.20801223825365
C           -5.35554284412226        0.41635708390882        0.16716005235529
C           -6.64353602357579        0.72311450525101        0.57474717402695
C           -6.95148127618324        2.04518480462620        0.83261776911545
C           -5.99464503201292        3.04756779646104        0.68816850329333
C           -4.71280000451712        2.74353111103805        0.28098901897682
C           -4.38392515181094        1.41787500663144        0.01551719497254
C           -3.12450243107971        0.87714418277184       -0.41745577985236
N           -2.00574048258549        1.55911985766307       -0.59949597405783
C            0.52728391468795        2.80900815130698       -0.57672226629751
C            1.74185848038693        3.45270675943571       -0.71426988225098
H            3.70146440804282        3.38510006168272       -1.57880473730945
H            3.33149703456836        1.21706169011061       -2.68577315723535
H            1.16874739846201        0.04334358836561       -2.40977699096400
H           -3.49663344815034       -3.08537739550488       -2.16566137703337
H           -3.10949627738119       -5.51977508179607       -2.11031560584080
H           -1.21335926421913       -6.44028092208183       -0.83004121014117
H            0.25655686574867       -4.92795169622629        0.46135416259473
H           -2.48537311191236       -2.09611682904845        1.90601322374661
H           -3.02717325754855       -0.17387555640774        3.35992938458604
H           -1.39100434541776        1.59882757962695        3.77039870097968
H            0.87268116687559        1.49305885505772        2.75682433444298
H            5.17358037726747        3.05262669221727        1.55901924008247
H            7.32453927440161        3.05845600575192        0.32276717513060
H            7.88683586903689        1.24905059191604       -1.22545324056397
H            6.32774845682716       -0.63313143195410       -1.59604709354278
H            4.09207557494624       -2.34495104046236       -1.55164979840436
H            1.88214832741807       -3.39326751561656       -1.14434213151261
H           -7.38197422148168       -0.05558869326737        0.68632574868738
H           -7.95022573312145        2.30347779210500        1.15136688103382
H           -6.26413584454379        4.07166801295068        0.89769879771951
H           -3.95566951179744        3.50204159169589        0.16090879544662
H           -0.26710295701305        3.23491478618490        0.01622838509846
H            1.90746405421254        4.40131527487650       -0.22459282249153
