  68
       -113.49266012
 C          3.2928176738       -1.3024935189       -2.5942747623
 C          2.5584451303       -2.2926721269       -1.9610144607
 C          1.2649636033       -2.0363814540       -1.5488919323
 C          0.7026824127       -0.7792404612       -1.7531343633
 C         -0.6412584451       -0.5051284832       -1.2439358825
 N         -0.9279297768        0.7050332271       -0.8273276738
 C         -2.0965270223        1.0222123230       -0.2003356910
 C         -2.1523078371        2.2562851358        0.5163001228
 C         -3.3587504509        2.8740971071        0.8999175393
 C         -3.3759174104        4.1021393314        1.5136073617
 C         -2.1881899487        4.7783146071        1.7850449005
 C         -0.9847933835        4.1922082624        1.4377016026
 C         -0.9461706160        2.9462116774        0.8314924083
 N          0.3063286693        2.3876937101        0.5404679019
 C          1.2771096959        3.0124986516       -0.2068560399
 C          1.2115358980        4.2062605281       -0.9148187912
 C          2.3363418388        4.6004111884       -1.6144842634
 C          3.4980801207        3.8296019108       -1.6182110352
 C          3.5645275678        2.6299348861       -0.9320820344
 C          2.4458837297        2.2143754025       -0.2279113224
 C          2.1408152286        1.0481249395        0.5488718393
 C          2.7907811244       -0.1372345723        0.8441504312
 O          4.0223757684       -0.5291871692        0.4380539167
 C          4.1936929319       -1.7936851842        0.9183674310
 C          5.2980991763       -2.6015230518        0.7280461465
 C          5.2670237393       -3.8630684003        1.2983582736
 C          4.1690162060       -4.3000282965        2.0345059303
 C          3.0662710329       -3.4906224264        2.2257501656
 C          3.0741495185       -2.2207908254        1.6618153077
 C          2.1465971006       -1.1252891704        1.6177141766
 C          0.8693172759       -0.9115897226        2.1396013102
 C          0.2046364376        0.2618420944        1.8571742662
 C          0.8210753984        1.2045405002        1.0328714193
 C         -3.0938264169        0.0199476858       -0.2077097123
 S         -4.7295209378        0.0519679405        0.3876838918
 C         -4.9601034937       -1.6333845005       -0.0338971723
 C         -6.1065756262       -2.3780023051        0.1577041811
 C         -6.1071267795       -3.6996161121       -0.2561680327
 C         -4.9766704756       -4.2614415763       -0.8501481191
 C         -3.8317329448       -3.5217066733       -1.0411289869
 C         -3.8102428115       -2.1832453259       -0.6351223176
 C         -2.7486749688       -1.2424725713       -0.7173350749
 N         -1.5142077080       -1.4973393433       -1.1983666801
 C          1.4421496384        0.2104427904       -2.3919824123
 C          2.7302634404       -0.0559656888       -2.8158392126
 H          4.3050016636       -1.5033019565       -2.9134284377
 H          2.9988927677       -3.2630889286       -1.7821068444
 H          0.6796627738       -2.7950866623       -1.0517011410
 H         -4.2939842451        2.3900834506        0.6719641233
 H         -4.3209448237        4.5512769350        1.7796294752
 H         -2.2029159601        5.7399797847        2.2728575190
 H         -0.0504085422        4.6829916755        1.6714667790
 H          0.3098301869        4.7992888308       -0.9234548935
 H          2.3142634595        5.5238161700       -2.1736380698
 H          4.3560175881        4.1751754707       -2.1755365794
 H          4.4551946333        2.0214588557       -0.9438614919
 H          6.1438765057       -2.2578672295        0.1546515764
 H          6.1117851241       -4.5223110214        1.1672704216
 H          4.1829394600       -5.2919943246        2.4612020016
 H          2.2157454485       -3.8317430005        2.7955305238
 H          0.4046466098       -1.6695802949        2.7505964132
 H         -0.7875973447        0.4418520884        2.2414625895
 H         -6.9760351010       -1.9371448804        0.6204921370
 H         -6.9930342475       -4.3001496219       -0.1166056839
 H         -5.0054334768       -5.2937476352       -1.1665127276
 H         -2.9515722268       -3.9427598567       -1.5012375650
 H          0.9963827508        1.1804152507       -2.5540142844
 H          3.3004193846        0.7150384164       -3.3130038716
