68
 energy: -113.570357867606 gnorm: 0.000034005538 xtb: 6.7.1 (edcfbbe)
C            3.51541707732607        2.14641277453490       -1.88650802029262
C            3.12207139408848        0.89264219356781       -2.32690718325124
C            1.82511602365204        0.46218901550794       -2.12682762139796
C            0.90384909142447        1.29392072569052       -1.49455620014039
C           -0.45850624766400        0.82597482718456       -1.24353748583319
N           -0.64486814563953       -0.49368104492048       -1.24611454018132
C           -1.83396795566660       -0.98775980994114       -0.94200843822198
C           -1.90374723343284       -2.44102659418745       -0.70700793990879
C           -2.80918127493651       -3.26905793395882       -1.35182839535821
C           -2.79003080321419       -4.63344146323713       -1.11595529899465
C           -1.87068238003540       -5.17525966630808       -0.23350374086179
C           -0.98237968439025       -4.35425050290397        0.44168897046271
C           -1.00072525445964       -2.98723171938037        0.21661810753221
N           -0.15217779121379       -2.11323143292470        0.92723593764254
C           -0.62936310018209       -1.01436931575416        1.61706504314788
C           -1.90650206358465       -0.77551131831253        2.10247289590577
C           -2.13805190174647        0.43216290646612        2.73318769867338
C           -1.12356097736119        1.37405974056102        2.89323513043555
C            0.15817787942182        1.12674735219604        2.44319963854618
C            0.41096117402078       -0.07793503661001        1.80149965638908
C            1.56671767910469       -0.64454622624586        1.17292046741601
C            2.86940286227081       -0.23124735787839        0.94086698645102
O            3.45044934572930        0.93296447320051        1.32926833067222
C            4.71873273781403        0.90411645649727        0.83517763873736
C            5.67501316032435        1.89324366675582        0.96867549225438
C            6.90625800013402        1.66997830358407        0.37747620538079
C            7.17250042644459        0.49613728565713       -0.32199457546731
C            6.21689021477802       -0.49275761239293       -0.45189098569519
C            4.97348432766190       -0.29075490381344        0.13196622017548
C            3.74944443939861       -1.04143416384966        0.20155445528205
C            3.33519268122847       -2.27040031735073       -0.31530063006210
C            2.04272771485300       -2.69850514596619       -0.10455466707821
C            1.17739963739638       -1.89010452919203        0.62946762256086
C           -2.90263998863664       -0.11950326455740       -0.73588855501236
S           -4.55816568669401       -0.46862969519522       -0.33497805940850
C           -4.89185500936562        1.24397848049587       -0.15666020744034
C           -6.11209356289829        1.80327549212275        0.18591375648182
C           -6.19581390321802        3.17844199788361        0.29158609046636
C           -5.08464191816010        3.98636560979637        0.05986975765807
C           -3.87032513802907        3.43096020580473       -0.28392209130783
C           -3.76647359928190        2.04801127486757       -0.39542610158577
C           -2.61185830308005        1.26175563917596       -0.73298331593136
N           -1.39481912389082        1.72527132846428       -0.96443062911858
C            1.30065600267906        2.55642123841062       -1.06094734654069
C            2.60314007791005        2.97496407528972       -1.25250334750808
H            4.53551306951504        2.47232473224641       -2.02963169928830
H            3.83531436120363        0.24655033684880       -2.81727312082000
H            1.50889130408785       -0.51801248601713       -2.44782929653847
H           -3.51247653317169       -2.84505935942048       -2.05332620036929
H           -3.49164653113407       -5.27514677020827       -1.62690278436533
H           -1.85296502121221       -6.24056160612956       -0.05870884831143
H           -0.27960032887660       -4.76433819424381        1.15155840652013
H           -2.69557979272438       -1.50366195729174        1.97789340259343
H           -3.12894713105439        0.65364969702735        3.10298820667435
H           -1.34992549732214        2.31067991725148        3.38074253570564
H            0.94999540796251        1.84882890570146        2.56917934694546
H            5.46071070047442        2.80073518552794        1.51011505103830
H            7.67621326168400        2.42250665566154        0.45990835145941
H            8.14567939399748        0.36010481410047       -0.77028883867598
H            6.42655564247703       -1.40179265467029       -0.99498679558084
H            4.02508745656723       -2.87177474946507       -0.88698690367314
H            1.69450614760271       -3.63454131070028       -0.51387533720484
H           -6.97048729452015        1.17493289070016        0.36606363971266
H           -7.13828697147671        3.63227427075194        0.55916814860606
H           -5.17988149851396        5.05774278869202        0.15156874665349
H           -2.99649986110845        4.03533332410682       -0.46866453927117
H            0.57891983907571        3.18481915664277       -0.56286477662263
H            2.91362400031409        3.94869809354651       -0.90268168396967
