  106
       -162.53154351
 C         -1.8512339320       -2.2794999514       -0.0969557330
 C         -2.6311722367       -1.1845537211       -0.0424504775
 C         -4.0941251255       -1.2628377817       -0.0550401711
 C         -4.8448015353       -0.2516765907       -0.6572048068
 C         -6.2223243979       -0.3087628130       -0.6830975803
 C         -6.8897114520       -1.3849663401       -0.1030150885
 N         -8.2878755192       -1.4480847010       -0.1296219453
 C         -9.1083037502       -1.6853006477        0.9559803854
 C         -8.7790904758       -1.8531790465        2.2933834653
 C         -9.8101582444       -2.0499125920        3.1919466951
 C        -11.1406776586       -2.0716392340        2.7797698772
 C        -11.4760208109       -1.8800619410        1.4544223922
 C        -10.4571588669       -1.6801186513        0.5324367131
 C        -10.4399523647       -1.4326615005       -0.8820942135
 C        -11.4343386793       -1.3333728289       -1.8462336884
 C        -11.0647203827       -1.1058753263       -3.1566621158
 C         -9.7226560142       -0.9928594020       -3.5127872553
 C         -8.7154652590       -1.0877302185       -2.5716665606
 C         -9.0820041873       -1.2918888947       -1.2491019507
 C         -6.1506782088       -2.3960653463        0.5064042749
 C         -4.7729869329       -2.3313715714        0.5312280509
 C         -2.0310656803        0.1631714582       -0.0161442463
 C         -1.0687109704        0.5184285410       -0.9591074732
 C         -0.4324258742        1.7389248737       -0.8895554051
 C         -0.7400747714        2.6295388849        0.1363396301
 N         -0.0261813083        3.8285262133        0.2526528676
 C          1.3509547787        3.9304816793        0.2612563760
 C          2.3103030011        2.9295062223        0.1992063177
 C          3.6383372130        3.3064233447        0.2550819352
 C          4.0106714517        4.6432662266        0.3789041914
 C          3.0600736642        5.6404534549        0.4652035071
 C          1.7180288006        5.2873558114        0.4111359264
 C          0.4938158470        6.0342530758        0.4910083117
 C          0.2053690050        7.3862411456        0.6216665231
 C         -1.1172133469        7.7811801063        0.6462511103
 C         -2.1461251210        6.8492406060        0.5288281759
 C         -1.8848798484        5.4989161023        0.3975903807
 C         -0.5579429469        5.0939620269        0.3944021100
 C         -1.7395192847        2.3049480125        1.0489098496
 C         -2.3856809567        1.0871609072        0.9626314100
 C         -0.3946202531       -2.2628804045       -0.0245529196
 C          0.3604091934       -3.0752712819       -0.8701146139
 C          1.7391157455       -3.0168674965       -0.8632610508
 C          2.4133881798       -2.1574324345        0.0023553722
 C          3.8771592662       -2.0526044568       -0.0213545959
 C          4.4971667577       -0.8125434072        0.1260573114
 C          5.8714159549       -0.6966838694        0.0945208081
 C          6.6641682615       -1.8259857968       -0.0916858983
 N          8.0592642883       -1.7109526171       -0.1343485854
 C          8.9566886647       -2.4718794978        0.5883795753
 C          8.7184873568       -3.4542045130        1.5389948424
 C          9.8112629628       -4.0484705100        2.1403434604
 C         11.1134332608       -3.6741029856        1.8162188044
 C         11.3561975459       -2.6799093325        0.8898147888
 C         10.2740063028       -2.0675152347        0.2717261145
 C         10.1557306243       -1.0128477718       -0.6956203804
 C         11.0815157877       -0.2416620772       -1.3859484841
 C         10.6202417683        0.6971445809       -2.2867298653
 C          9.2556600935        0.8612078154       -2.5143911386
 C          8.3154641180        0.1059502384       -1.8401540898
 C          8.7720977350       -0.8222690719       -0.9152356122
 C          6.0551059737       -3.0694129338       -0.2380195941
 C          4.6797865728       -3.1776711359       -0.2004592455
 C          1.6597647735       -1.3889179896        0.8896143091
 C          0.2832580914       -1.4423625988        0.8792492714
 H         -2.3070408405       -3.2507370225       -0.2402398084
 H         -4.3363857704        0.5848131934       -1.1144748949
 H         -6.7919275968        0.4871457780       -1.1391576193
 H         -7.7526261178       -1.8197722797        2.6264643306
 H         -9.5791098409       -2.1859748343        4.2382645749
 H        -11.9175433773       -2.2308174447        3.5126867562
 H        -12.5078505477       -1.8793986932        1.1369655878
 H        -12.4733104105       -1.4380972473       -1.5722004066
 H        -11.8223085261       -1.0234653300       -3.9217381936
 H         -9.4630596566       -0.8309806133       -4.5486770268
 H         -7.6777362693       -1.0166921994       -2.8610549872
 H         -6.6643083240       -3.2364640088        0.9491033757
 H         -4.2144140509       -3.1139855374        1.0226261358
 H         -0.8200763953       -0.1732236997       -1.7501684765
 H          0.3070670158        2.0119703811       -1.6272857041
 H          2.0258455881        1.8902921418        0.1186292026
 H          4.4077852289        2.5498772128        0.2038283811
 H          5.0596971832        4.8967138688        0.4164407301
 H          3.3492622483        6.6744898947        0.5772588627
 H          1.0024911737        8.1103772370        0.6975125021
 H         -1.3629796153        8.8276470571        0.7491919767
 H         -3.1709816393        7.1901997761        0.5372022031
 H         -2.6881734037        4.7855411980        0.2900537327
 H         -1.9839061601        2.9969526762        1.8409533098
 H         -3.1457734218        0.8291695784        1.6862254424
 H         -0.1456234043       -3.7333433068       -1.5626714548
 H          2.3021515205       -3.6233464482       -1.5577498890
 H          3.8920643275        0.0725776485        0.2536678473
 H          6.3419008663        0.2666049179        0.2252634655
 H          7.7130467109       -3.7384570483        1.8110282386
 H          9.6519223239       -4.8181368455        2.8812498022
 H         11.9409969353       -4.1647892175        2.3066573036
 H         12.3647545296       -2.3776476407        0.6509743544
 H         12.1394516447       -0.3806423450       -1.2215515231
 H         11.3234299222        1.3088708357       -2.8321626259
 H          8.9248393312        1.5927249984       -3.2369676802
 H          7.2611935910        0.2280884882       -2.0382447135
 H          6.6664819375       -3.9455124788       -0.3952118644
 H          4.2210123995       -4.1504214215       -0.2991272673
 H          2.1624269797       -0.7566532956        1.6072207667
 H         -0.2796915008       -0.8515293778        1.5861318641
