  121
       -189.76221010
 C         -8.5756368037       -0.2541418917        1.0305229544
 C         -7.5576043784       -0.5280552675        1.9282494168
 C         -6.6574595786       -1.5456625000        1.6734298839
 C         -6.7632558235       -2.2904471172        0.5022427525
 N         -5.8360922767       -3.3037369040        0.2220467089
 C         -6.1324777162       -4.5867822100       -0.1923327816
 C         -7.3645703354       -5.2131184684       -0.3133119350
 C         -7.3798083077       -6.5327277832       -0.7226070607
 C         -6.2014260813       -7.2224795268       -0.9992942909
 C         -4.9715532738       -6.6110410450       -0.8601160405
 C         -4.9301251968       -5.2851622911       -0.4503066276
 C         -3.8587320062       -4.3649306098       -0.1875648076
 C         -2.4787168340       -4.4549050171       -0.2958348741
 C         -1.7037756733       -3.3420314523       -0.0010675269
 C         -0.2386643258       -3.3756251122       -0.1227268336
 C          0.4230236695       -2.2852047025       -0.7025875690
 C          1.7969579442       -2.2204299532       -0.7834909945
 C          2.5346613649       -3.2635938384       -0.2441485358
 C          1.8864755353       -4.4066983914        0.2712268301
 C          0.5010386131       -4.4590613077        0.3325218503
 C          2.9271342565       -5.3132938257        0.6726964933
 C          2.9124953070       -6.5776283100        1.2449101585
 C          4.1164756863       -7.1796873531        1.5512364990
 C          5.3216129725       -6.5241105869        1.3143924405
 C          5.3609186285       -5.2649342639        0.7452006553
 C          4.1566824540       -4.6689953049        0.4007996686
 N          3.9076792086       -3.4276467758       -0.1610748489
 C          4.8446915028       -2.4258784582       -0.4242846995
 C          6.0510661607       -2.6904098507       -1.0728229014
 C          6.9526742200       -1.6686822397       -1.2887760742
 C          6.6745247656       -0.3506017854       -0.9275857665
 C          7.6607232793        0.6985289832       -1.2277625134
 C          7.2893931358        1.9757448551       -1.6516385053
 C          8.2806728223        2.9092623466       -1.8925548368
 C          9.6065366774        2.5454125187       -1.7156260553
 C          9.8747272547        1.2421623134       -1.3255585266
 N          8.9374994291        0.3457399892       -1.0902433158
 C          5.4603013946       -0.0866416515       -0.2849515297
 N          5.0777577321        1.1989298430        0.1359044075
 C          5.6781493926        1.9833501268        1.1009869933
 C          6.9185278383        1.8417496238        1.7032288980
 C          7.2856447918        2.7834179918        2.6454588311
 C          6.4393096085        3.8344185779        2.9913561279
 C          5.1934110569        3.9659393237        2.4108065760
 C          4.8011384326        3.0353459291        1.4581828358
 C          3.6037193238        2.8590889837        0.6802083037
 C          2.3796961154        3.5120985674        0.6235039623
 C          1.4013335025        3.0462278285       -0.2467306522
 C          0.0464878251        3.6175249887       -0.2536896192
 C         -0.1660533902        4.9964544911       -0.1275755020
 C         -1.4329746051        5.5446263119       -0.1061981045
 C         -2.5196766794        4.6864181722       -0.2019905856
 C         -2.3255702704        3.2956210755       -0.3602858076
 C         -1.0457272384        2.7671619921       -0.3785042596
 C         -3.6311870866        2.7098234469       -0.4786137715
 C         -4.0795835150        1.4072144679       -0.6513096710
 C         -5.4397997375        1.1774843705       -0.7021480653
 C         -6.3466970078        2.2264781249       -0.5697657709
 C         -5.9239482587        3.5323711944       -0.4093614249
 C         -4.5573668377        3.7733841675       -0.3844639350
 N         -3.8728998134        4.9623232634       -0.2200311805
 C         -4.4537495099        6.2320106590       -0.1014195537
 C         -4.0788120086        7.0797322794        0.9369261192
 C         -4.6518758008        8.3329629704        1.0460010466
 C         -5.6066699362        8.7471005068        0.1322586559
 C         -5.9840208520        7.9032123711       -0.8990375464
 C         -5.4089778705        6.6523462370       -1.0226818546
 C          1.6938181816        1.9839687826       -1.1152319321
 C          2.9021591454        1.3246330782       -1.0779713170
 C          3.8308661924        1.7266458128       -0.1303224574
 C          4.5768956139       -1.1236823087       -0.0177352585
 C         -2.3246834999       -2.1549090762        0.4133149922
 C         -3.6934698083       -2.0455348170        0.5381090774
 C         -4.4631124459       -3.1584966904        0.2334135123
 C         -7.7850192197       -2.0107695351       -0.4012582959
 C         -8.6886569552       -1.0000936349       -0.1308621184
 H         -9.2798806188        0.5377824138        1.2367399281
 H         -7.4672624689        0.0497861982        2.8358785725
 H         -5.8769622819       -1.7766229320        2.3825744539
 H         -8.2821469401       -4.6921121394       -0.0840979486
 H         -8.3266152041       -7.0421605221       -0.8262037677
 H         -6.2559102524       -8.2527981954       -1.3182047225
 H         -4.0575279266       -7.1496732941       -1.0602963157
 H         -2.0164180341       -5.3697600126       -0.6348779829
 H         -0.1640088792       -1.4778345815       -1.1145578576
 H          2.2734955099       -1.3795664568       -1.2585345954
 H          0.0062242363       -5.3185387352        0.7591135309
 H          1.9752096135       -7.0729486661        1.4487718670
 H          4.1281660311       -8.1651455640        1.9924649638
 H          6.2484712280       -7.0082150361        1.5845229604
 H          6.3032490289       -4.7620453272        0.5933268751
 H          6.2694655204       -3.6884494644       -1.4186908989
 H          7.8945523382       -1.8696115914       -1.7750759480
 H          6.2520908256        2.2264096529       -1.8075181361
 H          8.0217905785        3.9067522513       -2.2175245699
 H         10.4077403193        3.2478984936       -1.8832484585
 H         10.8916248852        0.8950649691       -1.1914358053
 H          7.5754707898        1.0247249625        1.4464885448
 H          8.2496045781        2.7010082526        3.1253833310
 H          6.7643697631        4.5514918019        3.7305809900
 H          4.5339156346        4.7743896728        2.6888510431
 H          2.1785301651        4.3486234537        1.2757032279
 H          0.6902253202        5.6520273080       -0.0669580427
 H         -1.5689366012        6.6131101582       -0.0300123292
 H         -0.9030921417        1.7008653100       -0.4676080333
 H         -3.3748968576        0.5948019219       -0.7444359351
 H         -5.8139825017        0.1737947160       -0.8389814277
 H         -7.4044579451        2.0103052193       -0.5931636885
 H         -6.6362657333        4.3360286374       -0.2974121056
 H         -3.3507609360        6.7445675167        1.6604187869
 H         -4.3573757690        8.9863330533        1.8538606460
 H         -6.0552998491        9.7246461122        0.2234469330
 H         -6.7249109136        8.2237138641       -1.6165581299
 H         -5.6846820359        5.9999917087       -1.8377199843
 H          0.9532186080        1.6860300414       -1.8423520425
 H          3.1265965631        0.5261845858       -1.7696185139
 H          3.6752222805       -0.9093128795        0.5360928364
 H         -1.7060788341       -1.3047509458        0.6622228842
 H         -4.1462597335       -1.1184852167        0.8541998414
 H         -7.8545052506       -2.5778359580       -1.3177601279
 H         -9.4791983510       -0.7889643224       -0.8359908841
