93
 energy: -141.285794594767 gnorm: 0.000064842407 xtb: 6.7.1 (edcfbbe)
C           -0.32564872084185       -1.94130578160025       -2.11180849735305
C            0.71788239282797       -1.97663786565879       -1.03428170434309
C            2.05759166581770       -1.87365366738427       -1.37554085788193
C            3.07445811169155       -1.90920233476939       -0.42752768915105
C            4.46856943822076       -1.76249585738155       -0.89167975245026
C            4.98492715358931       -2.63771608591264       -1.84350182885541
C            6.28329164827749       -2.49110593326300       -2.29820357177671
C            7.07884006171383       -1.46230818407423       -1.82689599207357
C            6.57029913158330       -0.57779798718634       -0.88027074038410
N            7.36454265787125        0.47903676097878       -0.40405691910241
C            8.64420747042493        0.36562087267146        0.09902633820203
C            9.40844386855686       -0.77153192138677        0.32255605671285
C           10.66681693578140       -0.60699689419920        0.86907530590653
C           11.15848485909737        0.65546148107404        1.19655345985329
C           10.39471949080186        1.78839250724910        0.99724029231706
C            9.12579859500211        1.64894461950874        0.44909171798294
C            8.07709618488689        2.57751734657167        0.13173445009607
C            7.95928377827113        3.95833464419656        0.23052882955351
C            6.78816854871558        4.55514222770855       -0.19226622220576
C            5.74684194843144        3.79455917601370       -0.72129276461553
C            5.84027231966460        2.42026459868600       -0.83079482712991
C            7.00707973803666        1.81208648060680       -0.38839258573771
C            5.27183514034886       -0.73543396243845       -0.41097089543909
C            2.74850544605065       -2.09279504292883        0.91848450238667
C            3.79464571685500       -2.18960826354802        1.98970764202479
C            1.40892105281278       -2.20937655495376        1.25807892112692
C            0.39015112584951       -2.13662672334841        0.31481677493242
C           -1.00751262333648       -2.25218904084483        0.77699720692562
C           -1.41324369551606       -3.36994759408933        1.50288488234764
C           -2.71427879694799       -3.47107224727972        1.96135450712096
C           -3.63202130284869       -2.46980872469816        1.69964307602134
C           -3.24589134288813       -1.34989159896152        0.96582147552282
C           -4.15460209393707       -0.25199836822760        0.66689792064582
N           -3.78248256148745        1.00487448593132        0.66826565656337
C           -4.89379991085292        1.72385839555497        0.35523935078715
C           -5.02233422097669        3.13869934745381        0.26994721023987
C           -3.93806568721972        3.98424690129113        0.53074032980742
C           -4.09149231899560        5.34730528260328        0.47710687553854
C           -5.33959392851333        5.88323417006360        0.16446010541315
C           -6.41089859922012        5.06190656383890       -0.09971096906209
C           -6.29213619441360        3.66350372915117       -0.06455767141184
C           -7.39674972196010        2.76988879191863       -0.36998191342770
C           -8.64525261938351        3.25859500035474       -0.78213534502997
C           -9.68568137273490        2.42137423088240       -1.10978629556434
C           -9.51528446601136        1.04147771790502       -1.05340015349034
C           -8.30986895387267        0.52186105642641       -0.64983887648654
C           -7.24407354687419        1.35799043531937       -0.28610433167711
C           -5.97495868980354        0.87162967389414        0.13853168339315
N           -5.48708186293752       -0.39851467715098        0.35471144933417
C           -6.16793278125721       -1.63313691496288        0.27564149943388
C           -7.17224737358164       -1.93588374834295        1.19053271891045
C           -7.81112315212036       -3.16070892062846        1.12430778389684
C           -7.44855748380981       -4.08456604163453        0.15660807962330
C           -6.44666016250286       -3.78191421967968       -0.75056241154938
C           -5.80349436575358       -2.55776952206350       -0.69538379757859
C           -1.92949316765330       -1.24666722003022        0.52137221382627
H           -0.64030575562964       -0.91498936238741       -2.30327856967731
H            0.07598761110433       -2.34497347809647       -3.03910096503463
H           -1.20348963422636       -2.51578168041463       -1.82530393164602
H            2.32592500419707       -1.74797386216186       -2.41581364196059
H            4.36614201877454       -3.44092711335684       -2.21565324192690
H            6.67739220583241       -3.17673311420176       -3.03417461122806
H            8.08416606165879       -1.32916957987520       -2.19761390318550
H            9.02998839045319       -1.75487954500153        0.08666835641651
H           11.28228362183086       -1.47646279609593        1.05003706442331
H           12.14864721499045        0.74303863848866        1.61967387504498
H           10.77082779647532        2.76476873562043        1.26490834847909
H            8.77104612832172        4.54966714446842        0.62770817939372
H            6.67604355956462        5.62734365417776       -0.12161149341217
H            4.84701786209049        4.29068341437178       -1.05537849200626
H            5.03356134916275        1.84228673416420       -1.25603200014138
H            4.88484266668329       -0.04872842208911        0.32652286717538
H            3.46616218114002       -2.86515439133015        2.77705990201908
H            4.73900144520862       -2.54767775706017        1.58681666395237
H            3.96626763561660       -1.21249586736416        2.44251772614748
H            1.14166557645188       -2.34912819286982        2.29666491420698
H           -0.70407807536729       -4.16022051443033        1.70195892460449
H           -3.01889184364516       -4.33631096331675        2.53207452820069
H           -4.63633179278152       -2.55188746077344        2.08573448448054
H           -2.99116926729397        3.52917800627641        0.77908289037180
H           -3.25680498527209        6.00224788215267        0.68006255171862
H           -5.46808363874904        6.95564484820297        0.12931311665864
H           -7.35778562543644        5.52213555367974       -0.33347524169934
H           -8.80546692685163        4.32188259157616       -0.85803621708431
H          -10.63272217092067        2.83617687233568       -1.42279663048429
H          -10.32394643350793        0.38122730125687       -1.33043340201120
H           -8.17583603351933       -0.54767037223647       -0.62436719403426
H           -7.44420780448125       -1.20843344706440        1.94203851988929
H           -8.59070520810905       -3.39423080142588        1.83377333595100
H           -7.94787906347680       -5.04039901593338        0.11073060136461
H           -6.16317937581929       -4.49929553932617       -1.50572954931323
H           -5.02033127283657       -2.31085135364629       -1.39704247857354
H           -1.63496118453123       -0.35904834557913       -0.01651198957178
