93
 energy: -141.191797197506 gnorm: 0.000044517540 xtb: 6.7.1 (edcfbbe)
C            1.17782065395718       -3.11509077894892       -2.52956629921265
C            1.35857656261058       -2.81205493951104       -1.07136328221905
C            2.61957725279554       -2.49790829871527       -0.58846297632691
C            2.85234338832722       -2.18948240668605        0.74745787080693
C            4.22724228175543       -1.84997996084732        1.16491495181594
C            4.88793905655422       -2.56909913449128        2.15704574317308
C            6.18002015198928       -2.23308370151098        2.52054657899901
C            6.82752113127722       -1.17096784082728        1.91492856532492
C            6.17940726697678       -0.45153279074166        0.91510133906226
N            6.81904794065028        0.63326492122895        0.29257925554753
C            6.28960169350898        1.89874453126629        0.14127718063252
C            5.07513888732424        2.40849606226487        0.58129625190462
C            4.79800200813726        3.73606731024797        0.31521696077903
C            5.70491166137522        4.54707585523187       -0.36423160051110
C            6.92390506819781        4.05165073687534       -0.78545318934853
C            7.22502501741034        2.72017468313575       -0.53103064511748
C            8.37101039052936        1.89592599508372       -0.80052848675278
C            9.58327878304056        2.12245518995112       -1.43849086144674
C           10.47944230338153        1.07651948916741       -1.54821773162711
C           10.17324044085920       -0.18581370637351       -1.04345047431345
C            8.97339466680370       -0.43592134139565       -0.40487378596371
C            8.07795369457617        0.61678705475845       -0.27152320173097
C            4.88887721660655       -0.80156743589914        0.53659865426061
C            1.77958905113262       -2.17228691727952        1.64241987406946
C            1.94714453195741       -1.80824250700214        3.08852485151803
C            0.51728822221184       -2.47514929021259        1.15635306988121
C            0.28594224738731       -2.80244437664674       -0.17526981931485
C           -1.10388146658735       -3.05252009328839       -0.60661085546721
C           -1.48521087489553       -4.24443356780693       -1.23925974633053
C           -2.82187752519696       -4.44021480130188       -1.59294167682684
C           -3.76013241364411       -3.46871992492176       -1.37168071636017
C           -3.39537178252912       -2.22618672646831       -0.76812259375556
C           -4.38947981201343       -1.25166127697616       -0.61104448543809
N           -5.70502502004726       -1.53417283531994       -0.74212935339740
C           -6.37030421650600       -0.44694271825757       -0.40678057117038
C           -7.78559388394091       -0.28072522087137       -0.34051336989589
C           -8.63996606206726       -1.35221833637505       -0.60456451581970
C          -10.01017328734076       -1.19563523834616       -0.51371168212454
C          -10.52353343365924        0.03958803494958       -0.14893300942922
C           -9.68407429953590        1.10977956753009        0.11087220329090
C           -8.29190920821694        0.99234824717599        0.01675893318277
C           -7.38517040119035        2.10471366068168        0.24977602059842
C           -7.85621311557689        3.38622471304790        0.52434192788457
C           -7.01178312102687        4.46419727467574        0.71565197761634
C           -5.62685950015164        4.29260760269794        0.61525338886454
C           -5.11216441367272        3.05478336491124        0.35393999469213
C           -5.95301793304740        1.92137393967274        0.18076850156795
C           -5.47623377890580        0.63916691840491       -0.08725009613212
N           -4.21399768791079        0.10849885235035       -0.22411788979437
C           -2.97346715691075        0.75800698700280       -0.13570517471915
C           -2.15509053063539        0.83930319999654       -1.26352342284364
C           -0.90396069508356        1.41716212799609       -1.16611747046647
C           -0.45766611156126        1.91902032214990        0.04669606056767
C           -1.27427067807108        1.85000310009505        1.16619288164464
C           -2.52734563106620        1.27370601743950        1.08212478694826
C           -2.04575449552773       -2.07973306149044       -0.35465432288719
H            1.31024180859377       -4.18133504383244       -2.71526588400258
H            0.18272117861894       -2.83416274905817       -2.86666250002738
H            1.91787087700034       -2.58070812167249       -3.12188216108436
H            3.45757468967763       -2.49588223849851       -1.27249118349033
H            4.39033463583669       -3.40040698657242        2.63244710024624
H            6.68543216449966       -2.79622122541471        3.29138481898664
H            7.82377411386614       -0.88766019293181        2.21954375937291
H            4.37209110711533        1.79279606840579        1.12179267650549
H            3.85895506054025        4.15643618302376        0.64474000866750
H            5.45066109633776        5.57955483640855       -0.55449747211815
H            7.63236122576183        4.68476584284812       -1.29849526822357
H            9.81549726574865        3.09625089392670       -1.84320571546956
H           11.42895286636714        1.23277057087665       -2.03890460684744
H           10.88807003868988       -0.98776266771381       -1.15741420647859
H            8.73830285098534       -1.42124290939914       -0.03178204330788
H            4.39374544647622       -0.25110318811637       -0.24995574046363
H            2.09724822330931       -2.70469370327546        3.69081534959974
H            2.80389035778617       -1.15472851566770        3.23443564676867
H            1.05280405823762       -1.30851220855742        3.45550153309844
H           -0.32395115059377       -2.45930325766737        1.83615739434550
H           -0.75614138540034       -5.01922338747710       -1.41560502590226
H           -3.11435708969443       -5.37173001392400       -2.05668830124927
H           -4.79039996792093       -3.60285613164625       -1.65932862740520
H           -8.19638215633776       -2.29823893691021       -0.87470966998165
H          -10.67058580140726       -2.02429051816999       -0.71964879950522
H          -11.59231946552639        0.17522994528642       -0.06570116236159
H          -10.13493904574793        2.04768768550105        0.39241912632884
H           -8.91787492099317        3.56491027070210        0.58494256541036
H           -7.42221090490340        5.43951658629030        0.92892674603112
H           -4.96744183942712        5.13902821226771        0.73956778277707
H           -4.04634045868316        2.92979769432590        0.25859888245258
H           -2.50828089494103        0.43581252084045       -2.20134183230879
H           -0.27336234648085        1.47374957403516       -2.04079948527833
H            0.52439851433819        2.36039872988997        0.12045906439711
H           -0.92872696824839        2.23732896041639        2.11326932826415
H           -3.16375324402276        1.20244118889777        1.95279059268590
H           -1.73852934354361       -1.19950449505258        0.18314676172639
