  92
  -142.427789060000       0.402040534113474      !
 C          6.4683171829        2.7187677523        0.1270106104
 C          6.3392865141        1.2147001244       -0.1765817819
 C          7.7168718373        0.6232022265       -0.5287244074
 C          5.8114468877        0.5145775021        1.0594033658
 C          6.5284396583        0.5839038804        2.2457461361
 C          6.0880228691       -0.0266718643        3.4055474321
 C          4.8903050156       -0.7210274502        3.3943474049
 C          4.1577825494       -0.8066463745        2.2305762910
 C          4.6103457118       -0.2055739190        1.0500230285
 N          3.8566009857       -0.3178656003       -0.1029861301
 C          2.6952167170       -1.1403013243       -0.0849614723
 C          2.8419677149       -2.5346580593       -0.1377597565
 C          1.7266416915       -3.3258320358       -0.1235075331
 C          0.4395364971       -2.7644109255       -0.0656885504
 C          0.2820974308       -1.3560176114       -0.0173758261
 C          1.4436675370       -0.5698534434       -0.0220295578
 C         -1.0429161553       -0.7938007785        0.0330363442
 C         -1.2871585676        0.5872687974        0.0629236772
 C         -2.5695382653        1.0856940179        0.1089093921
 N         -2.7883026352        2.4926632550        0.1358670762
 C         -3.1071341968        3.1377793770       -1.0430741768
 C         -3.1161256370        2.4161399182       -2.2426521267
 C         -3.4354636534        3.0293681873       -3.4343343715
 C         -3.7473441315        4.3782241781       -3.4535918994
 C         -3.7273927571        5.0962455773       -2.2719050520
 C         -3.4106346974        4.5050326658       -1.0569199718
 C         -3.3996187868        5.3440853249        0.2051275088
 C         -2.3600480292        6.4679228495        0.0392993346
 C         -4.8029283172        5.9437366894        0.4112093332
 C         -3.0401708546        4.5235376656        1.4277468751
 C         -2.9912023582        5.1336790420        2.6733019316
 C         -2.6858336651        4.4293961515        3.8235094337
 C         -2.4248172406        3.0722155506        3.7398153100
 C         -2.4637825192        2.4403933576        2.5161048013
 C         -2.7636096878        3.1525664049        1.3487988520
 C         -3.6739074945        0.2210776140        0.1269838854
 C         -3.4652127581       -1.1301970352        0.0940657273
 C         -2.1646751250       -1.6600273718        0.0459743070
 C         -2.0018020684       -3.0780339022        0.0047561943
 N         -3.0538423697       -3.8817030272        0.0166722396
 C         -2.9116047111       -5.2071333847       -0.0271786746
 C         -3.9924335147       -6.0908673872       -0.0199877561
 F         -5.2474137180       -5.5761894965        0.0307196390
 C         -3.8310456375       -7.4626383805       -0.0627710101
 C         -2.5509206430       -7.9937574157       -0.1152599634
 C         -1.4435184603       -7.1654879532       -0.1266437346
 C         -1.5866338474       -5.7789753470       -0.0852935137
 N         -0.5387807326       -4.9517150725       -0.0988773820
 C         -0.6922481709       -3.6356460697       -0.0554715806
 C          4.2423691235        0.2758370319       -1.2902431481
 C          3.4549167568        0.1100645169       -2.4357422440
 C          3.8098937596        0.6970206431       -3.6306474492
 C          4.9630055597        1.4590841545       -3.7089703956
 C          5.7513291267        1.6119508789       -2.5834175210
 C          5.4189120087        1.0323065237       -1.3668702840
 H          6.8534926325        3.2567218460       -0.7344660067
 H          5.4933331133        3.1302546858        0.3814521666
 H          7.1410316267        2.8891720781        0.9626281014
 H          8.4109839077        0.7386293287        0.2988466326
 H          7.6185584150       -0.4380482858       -0.7492875146
 H          8.1393782225        1.1164557669       -1.3994556158
 H          7.4594345902        1.1293602852        2.2720063552
 H          6.6722099352        0.0445225616        4.3099157154
 H          4.5243457532       -1.1957304015        4.2920568913
 H          3.2215381367       -1.3423033566        2.2278801477
 H          3.8324166825       -2.9610237810       -0.1864732443
 H          1.8016234474       -4.4015010471       -0.1612569074
 H          1.3797014147        0.5058745764        0.0189206532
 H         -0.4708068999        1.2917808053        0.0502627635
 H         -2.8696591060        1.3661882989       -2.2313427215
 H         -3.4390931010        2.4535412611       -4.3472950891
 H         -4.0012426489        4.8688568063       -4.3804357850
 H         -3.9686326863        6.1476950629       -2.3036089965
 H         -2.5991394756        7.0929397516       -0.8164055717
 H         -2.3267318320        7.0985102242        0.9232365306
 H         -1.3716837093        6.0385676166       -0.1143373584
 H         -4.8338859754        6.5599782410        1.3051231590
 H         -5.5344559750        5.1451478368        0.5192298509
 H         -5.0898084161        6.5592872326       -0.4365634125
 H         -3.1984348055        6.1898050844        2.7555287020
 H         -2.6571537409        4.9354117027        4.7760704694
 H         -2.1928108192        2.5036242466        4.6275938553
 H         -2.2655199973        1.3819518466        2.4547582817
 H         -4.6700487659        0.6349069911        0.1630268607
 H         -4.2894215160       -1.8263242603        0.1037057421
 H         -4.7041742319       -8.0947635883       -0.0540091295
 H         -2.4195655369       -9.0638539083       -0.1476566047
 H         -0.4453439467       -7.5715942852       -0.1671340817
 H          2.5607554555       -0.4905858870       -2.3830550413
 H          3.1866870813        0.5557882237       -4.5006670439
 H          5.2509486802        1.9244244028       -4.6389092559
 H          6.6535697944        2.1990280939       -2.6622893347
  92
  -142.427765650000       0.392203396329639      !
 C          6.4555463556        2.7077462209        0.1912053985
 C          6.3036562972        1.2404286363       -0.2506228483
 C          7.6530538893        0.6931360855       -0.7515718056
 C          5.8585937353        0.4203351363        0.9431659838
 C          6.6474334260        0.3881339056        2.0847578420
 C          6.2787614491       -0.3237102570        3.2112008566
 C          5.0797653686       -1.0158246410        3.2135563050
 C          4.2791280762       -1.0051563790        2.0924249251
 C          4.6623643031       -0.3076157076        0.9405241853
 N          3.8445122990       -0.3303369895       -0.1744964650
 C          2.6865137135       -1.1548052766       -0.1541455419
 C          2.8293303018       -2.5478382433       -0.2461698594
 C          1.7147200820       -3.3395041945       -0.2078684193
 C          0.4304347413       -2.7799846940       -0.0935347761
 C          0.2762082071       -1.3725561157       -0.0234807636
 C          1.4370008167       -0.5867720051       -0.0431818695
 C         -1.0454842521       -0.8088492747        0.0670515367
 C         -1.2849627502        0.5726142206        0.0858208690
 C         -2.5639361205        1.0755282361        0.1640302944
 N         -2.7762800782        2.4835350878        0.1602328960
 C         -2.8405718531        3.1478207155       -1.0489962013
 C         -2.6299813032        2.4401952765       -2.2384471588
 C         -2.6824937155        3.0768384978       -3.4590953579
 C         -2.9520061275        4.4336085672       -3.5180801746
 C         -3.1702096198        5.1332731546       -2.3454928517
 C         -3.1199674862        4.5194954882       -1.1017475257
 C         -3.3852890604        5.3355844942        0.1476519219
 C         -2.3680717203        6.4895767529        0.2133012411
 C         -4.8185836709        5.8937257476        0.0714355711
 C         -3.2584161519        4.5014887243        1.4066592543
 C         -3.4425788707        5.0961039988        2.6470074192
 C         -3.3356912835        4.3811279172        3.8259132987
 C         -3.0327564979        3.0309289734        3.7770075819
 C         -2.8484929429        2.4132186861        2.5594144841
 C         -2.9646514103        3.1327148168        1.3642044797
 C         -3.6681531855        0.2140829780        0.2390917250
 C         -3.4634287770       -1.1385114929        0.2214422885
 C         -2.1671900331       -1.6728562807        0.1281251760
 C         -2.0063254936       -3.0911995938        0.0858323394
 N         -3.0562008847       -3.8951030515        0.1549999785
 C         -2.9162467926       -5.2207088749        0.1081258333
 C         -3.9943966481       -6.1048749155        0.1804335875
 F         -5.2439345594       -5.5907369784        0.3105169909
 C         -3.8358463454       -7.4765939392        0.1257369968
 C         -2.5615345576       -8.0075366375       -0.0075261458
 C         -1.4568820388       -7.1790168068       -0.0842623107
 C         -1.5970850029       -5.7927191667       -0.0289536098
 N         -0.5514618105       -4.9654985846       -0.0995960229
 C         -0.7014332589       -3.6496281377       -0.0413460713
 C          4.1445173619        0.3899686676       -1.3163616847
 C          3.2895103873        0.3267403592       -2.4231048790
 C          3.5563526746        1.0456379153       -3.5678237765
 C          4.6896614359        1.8375641559       -3.6366204063
 C          5.5492709515        1.8834426765       -2.5547444665
 C          5.3048970708        1.1716427176       -1.3884665918
 H          6.7903919878        3.3294348772       -0.6340996645
 H          5.4987370868        3.0892138809        0.5430035712
 H          7.1775560051        2.7972927814        0.9976940992
 H          8.4036464133        0.7374281758        0.0325811996
 H          7.5397192017       -0.3442942546       -1.0608465563
 H          8.0122153248        1.2667194479       -1.6013787859
 H          7.5790010159        0.9330053523        2.1014155780
 H          6.9175868109       -0.3302351732        4.0807149101
 H          4.7653323158       -1.5635466318        4.0889437501
 H          3.3415894952       -1.5381007225        2.1036505271
 H          3.8169749099       -2.9736737178       -0.3381171718
 H          1.7883709870       -4.4142660538       -0.2678897631
 H          1.3748083260        0.4874529183        0.0273391512
 H         -0.4686495339        1.2747392241        0.0265692263
 H         -2.4277525747        1.3816764901       -2.1969431313
 H         -2.5155360311        2.5120666620       -4.3637610839
 H         -2.9970591049        4.9427669117       -4.4683228867
 H         -3.3888225390        6.1883379983       -2.4082235518
 H         -2.4403610185        7.1211927785       -0.6672876515
 H         -2.5395569028        7.1087865760        1.0890058584
 H         -1.3572148709        6.0896914266        0.2675816699
 H         -5.0459941963        6.4958933844        0.9465820613
 H         -5.5329683507        5.0739564415        0.0233757001
 H         -4.9465441268        6.5120908130       -0.8125846699
 H         -3.6781276076        6.1479925321        2.7018325927
 H         -3.4854716009        4.8751332456        4.7734057281
 H         -2.9391340865        2.4575954315        4.6867790382
 H         -2.6105766234        1.3617453320        2.5234088830
 H         -4.6616581568        0.6304355886        0.3053537807
 H         -4.2886750366       -1.8317335275        0.2706938733
 H         -4.7066458338       -8.1089017232        0.1879225636
 H         -2.4324501074       -9.0775258962       -0.0509759199
 H         -0.4629423597       -7.5848212835       -0.1862088574
 H          2.4117195913       -0.2981287360       -2.3821348571
 H          2.8794234327        0.9839854355       -4.4065203792
 H          4.9084622944        2.4066718275       -4.5268145004
 H          6.4384594763        2.4909647457       -2.6286309701
  92
  -142.425978970000       5.921204677567049E-002 !
 C          6.2467602293        2.8315419665       -0.2277636293
 C          6.2353302562        1.2991228252       -0.0757244438
 C          7.6680122922        0.7743298962        0.1313035437
 C          5.4068720211        0.9370440414        1.1406711851
 C          5.7875427075        1.4026893221        2.3915147890
 C          5.0804687778        1.0889303131        3.5376884985
 C          3.9623852827        0.2779250827        3.4440178344
 C          3.5603693584       -0.1975455142        2.2150003702
 C          4.2647260120        0.1310906522        1.0505510524
 N          3.8339547303       -0.3550193875       -0.1694290465
 C          2.6731579009       -1.1769005221       -0.2113164100
 C          2.8108197191       -2.5697488529       -0.3065299457
 C          1.6893685729       -3.3529915263       -0.3196495246
 C          0.4063234604       -2.7854389149       -0.2330077436
 C          0.2594069002       -1.3781180782       -0.1479883007
 C          1.4251779492       -0.5996882737       -0.1420187350
 C         -1.0597270020       -0.8086895012       -0.0531122014
 C         -1.2864049822        0.5722491584        0.0222337932
 C         -2.5587635851        1.0859957492        0.1506693360
 N         -2.7754648364        2.4856465444        0.2459321284
 C         -3.2279618922        3.1569836024       -0.8792627892
 C         -3.2304680232        2.5126430988       -2.1186912024
 C         -3.6284150142        3.1824962305       -3.2565405470
 C         -4.0099604269        4.5098700009       -3.1759260636
 C         -4.0142633444        5.1498989474       -1.9478064079
 C         -3.6407818384        4.4942127680       -0.7856974171
 C         -3.7630992901        5.1167470981        0.5901459652
 C         -3.7432065115        6.6457180436        0.5437890039
 C         -5.1215212443        4.6638799412        1.1718673440
 C         -2.6892485416        4.5466584660        1.4966055850
 C         -2.1434331052        5.2619181780        2.5500728682
 C         -1.2999558839        4.6674376933        3.4738026721
 C         -1.0193055340        3.3170640549        3.3711393844
 C         -1.5282186563        2.5868076501        2.3174265259
 C         -2.3296953800        3.1960433852        1.3489473244
 C         -3.6698153557        0.2298380214        0.1710361611
 C         -3.4794555558       -1.1216760804        0.0754040750
 C         -2.1879245604       -1.6654365754       -0.0283185231
 C         -2.0366827088       -3.0829290081       -0.1110801090
 N         -3.0921704619       -3.8815484690       -0.0887951985
 C         -2.9607901985       -5.2060967632       -0.1719960246
 C         -4.0457101699       -6.0843976783       -0.1521550321
 F         -5.2956979513       -5.5648874831       -0.0521324784
 C         -3.8939066350       -7.4557729264       -0.2325591551
 C         -2.6193991947       -7.9925663875       -0.3360374311
 C         -1.5078808741       -7.1700624988       -0.3600753111
 C         -1.6414483031       -5.7842829700       -0.2817374623
 N         -0.5896263117       -4.9630074126       -0.2979273849
 C         -0.7322519949       -3.6474634571       -0.2193474677
 C          4.5105543510       -0.0894167250       -1.3443295450
 C          4.0190565318       -0.5963435032       -2.5531580879
 C          4.6759534858       -0.3562416501       -3.7402876981
 C          5.8344656943        0.4020661860       -3.7461211812
 C          6.3125562607        0.9190506761       -2.5560065428
 C          5.6727300576        0.6924787198       -1.3454178814
 H          6.8494226188        3.1317694133       -1.0801578775
 H          5.2324465457        3.1965598244       -0.3785045533
 H          6.6530048017        3.3058356822        0.6610395314
 H          8.2991364998        1.0254458180       -0.7163441682
 H          8.1126728494        1.2025286870        1.0250090633
 H          7.6534121907       -0.3083953474        0.2400037290
 H          6.6629833972        2.0277102786        2.4811554996
 H          5.4044145415        1.4683148182        4.4944414735
 H          3.4036938223        0.0111330427        4.3282965152
 H          2.6941781174       -0.8365943981        2.1494472956
 H          3.7982569044       -3.0019414120       -0.3638953702
 H          1.7571806607       -4.4277900155       -0.3856325044
 H          1.3703364256        0.4747089554       -0.0673903601
 H         -0.4623034130        1.2660801584       -0.0236780427
 H         -2.9109925894        1.4844293586       -2.1853200457
 H         -3.6296045220        2.6690794366       -4.2060432297
 H         -4.3127852380        5.0461328637       -4.0620286252
 H         -4.3284647734        6.1799077385       -1.9110361614
 H         -4.5575646388        7.0176586670       -0.0710453281
 H         -3.8886463357        7.0586239534        1.5377648099
 H         -2.7998909083        7.0084851774        0.1416461824
 H         -5.2500724263        5.0626061770        2.1758849233
 H         -5.1729207157        3.5789657497        1.2233409051
 H         -5.9346375528        5.0193589682        0.5426006784
 H         -2.3823554799        6.3048477428        2.6765442948
 H         -0.8901894353        5.2520781995        4.2829951826
 H         -0.3983478540        2.8289165289        4.1070850007
 H         -1.3073610855        1.5340303469        2.2472600547
 H         -4.6605952466        0.6493434746        0.2571455181
 H         -4.3124596845       -1.8072224249        0.0858369640
 H         -4.7702936697       -8.0831070246       -0.2128316942
 H         -2.4954243856       -9.0622379119       -0.3981232781
 H         -0.5136535234       -7.5799787311       -0.4401705614
 H          3.1121890491       -1.1804664388       -2.5537462936
 H          4.2810627299       -0.7596119061       -4.6603447868
 H          6.3584981462        0.5955526743       -4.6692165107
 H          7.2104076143        1.5175349678       -2.5778709597
  92
  -142.425970430000       5.867935903121187E-002 !
 C          7.5658615256        1.7953004715       -0.4772647338
 C          6.4295642403        0.7756331019       -0.5662998778
 C          6.9644552496       -0.4868891241       -1.2799804015
 C          5.9321105086        0.3384788160        0.7957673999
 C          6.6973061011        0.4238685628        1.9477775309
 C          6.2551653578       -0.0991803399        3.1515296141
 C          5.0228907675       -0.7247565426        3.2165393126
 C          4.2308748992       -0.8013418282        2.0897592109
 C          4.6719172325       -0.2714860144        0.8752021184
 N          3.8430479032       -0.3071019253       -0.2372296893
 C          2.6849261693       -1.1236663307       -0.1797455186
 C          2.8395630933       -2.5156648870       -0.2710897645
 C          1.7371733177       -3.3222373841       -0.1992634037
 C          0.4484851747       -2.7791289319       -0.0583288809
 C          0.2818374104       -1.3743864449        0.0252703093
 C          1.4318641200       -0.5746728101       -0.0132426284
 C         -1.0434008693       -0.8231506273        0.1375305122
 C         -1.2938910782        0.5557359373        0.1559823172
 C         -2.5770945420        1.0504644956        0.2265527203
 N         -2.7938929172        2.4552500638        0.1914359067
 C         -2.6646535940        3.1225512170       -1.0128305694
 C         -2.3194524769        2.4112322641       -2.1685401246
 C         -2.1710137167        3.0528547854       -3.3786155084
 C         -2.3717887296        4.4199250805       -3.4640495963
 C         -2.7350364911        5.1221320534       -2.3298646575
 C         -2.8920928617        4.5022713835       -1.0979129711
 C         -3.3196996708        5.3244228603        0.1010075221
 C         -2.2713661132        6.4252545368        0.3464637973
 C         -4.6919126432        5.9542325978       -0.2006681836
 C         -3.4356923963        4.4804504203        1.3539511393
 C         -3.8132859312        5.0762008054        2.5492398282
 C         -3.9130341008        4.3584839225        3.7268603434
 C         -3.6149639442        3.0063637236        3.7249021969
 C         -3.2392334371        2.3883716325        2.5523249437
 C         -3.1609172444        3.1070798063        1.3533631718
 C         -3.6734448605        0.1788663676        0.3093599321
 C         -3.4569381300       -1.1719727570        0.3021774736
 C         -2.1569047829       -1.6968119136        0.2027322108
 C         -1.9835416451       -3.1129700246        0.1498258858
 N         -3.0252352824       -3.9272443750        0.2179955448
 C         -2.8754318079       -5.2507971880        0.1606029883
 C         -3.9459091029       -6.1444859262        0.2277895938
 F         -5.1990857190       -5.6415214772        0.3659031612
 C         -3.7762513818       -7.5144279478        0.1614926621
 C         -2.4979911637       -8.0335618045        0.0211207658
 C         -1.4004886164       -7.1951082508       -0.0528077329
 C         -1.5517198014       -5.8106065304        0.0132713481
 N         -0.5148895809       -4.9732691719       -0.0601456240
 C         -0.6743489892       -3.6592341350        0.0067936095
 C          4.0237147353        0.6073197208       -1.2638831706
 C          3.0048762824        0.8738975022       -2.1812765409
 C          3.1611069096        1.8515259567       -3.1419666067
 C          4.3354872146        2.5793880278       -3.2019054945
 C          5.3746387836        2.2710365478       -2.3396604671
 C          5.2547978948        1.2752232137       -1.3845543516
 H          7.9305838604        2.0447083425       -1.4695839737
 H          7.2341782491        2.7040776149        0.0198636555
 H          8.4063169310        1.3781400132        0.0698957350
 H          7.7915970785       -0.9129603848       -0.7161228471
 H          6.1828761912       -1.2377014279       -1.3685185524
 H          7.3112495528       -0.2320768850       -2.2789719955
 H          7.6655729323        0.8959980103        1.9207308046
 H          6.8781033870       -0.0268834039        4.0298382631
 H          4.6715399873       -1.1463464350        4.1460774544
 H          3.2591651106       -1.2666734610        2.1473738964
 H          3.8289932017       -2.9316022201       -0.3869569630
 H          1.8241832063       -4.3961087073       -0.2570228499
 H          1.3569446047        0.4951666366        0.0970898076
 H         -0.4835051526        1.2643463527        0.0924395390
 H         -2.1742165075        1.3444022487       -2.1133012386
 H         -1.9017570231        2.4828831662       -4.2551151492
 H         -2.2554055632        4.9340366393       -4.4055299155
 H         -2.9023688420        6.1849882588       -2.4137547570
 H         -2.1704863750        7.0658723315       -0.5249752470
 H         -2.5512722123        7.0445536466        1.1936390141
 H         -1.3031731186        5.9743413523        0.5556074013
 H         -5.0296307313        6.5651202928        0.6315672535
 H         -5.4279414448        5.1715477316       -0.3735904442
 H         -4.6442249059        6.5811426172       -1.0863029590
 H         -4.0355924206        6.1321575802        2.5687170889
 H         -4.2120068060        4.8527414656        4.6381387399
 H         -3.6715080888        2.4319989672        4.6371069712
 H         -2.9985579967        1.3370887276        2.5574515946
 H         -4.6711185961        0.5861276803        0.3705971188
 H         -4.2767624829       -1.8713178718        0.3551799863
 H         -4.6417675083       -8.1542879689        0.2204089006
 H         -2.3599694973       -9.1020133428       -0.0311283628
 H         -0.4036522630       -7.5918060579       -0.1617394836
 H          2.0874259597        0.3090431107       -2.1467451712
 H          2.3579811355        2.0494873837       -3.8353442019
 H          4.4573189579        3.3631090526       -3.9332784698
 H          6.2975319578        2.8184284107       -2.4367501350
  92
  -142.425876950000       5.315265073735044E-002 !
 C          6.2484271943        2.8298164241        0.0764904530
 C          6.2326367731        1.2980720752       -0.0815652944
 C          7.6693970107        0.7630070658       -0.2240165270
 C          5.6085679374        0.6894515154        1.1583659536
 C          6.1881169935        0.9122652420        2.3995102630
 C          5.6573229734        0.3840406807        3.5621026307
 C          4.5116044570       -0.3905732308        3.4955270673
 C          3.9152634764       -0.6296176288        2.2767561237
 C          4.4528561021       -0.0995129733        1.0979197518
 N          3.8333340580       -0.3590110070       -0.1085014544
 C          2.6720231741       -1.1834730227       -0.1221757702
 C          2.8110240170       -2.5765126374       -0.2067757544
 C          1.6898547527       -3.3606199354       -0.2100539039
 C          0.4064866103       -2.7923887069       -0.1344151748
 C          0.2590829450       -1.3845533418       -0.0585137115
 C          1.4248752854       -0.6059288230       -0.0498586780
 C         -1.0606983168       -0.8136185109        0.0135036516
 C         -1.2884943484        0.5683720008        0.0597821656
 C         -2.5637073819        1.0836124572        0.1443258305
 N         -2.7817841767        2.4866751922        0.1892338481
 C         -3.1227260324        3.1361645232       -0.9865552571
 C         -3.0210857029        2.4666033241       -2.2080331712
 C         -3.2991901348        3.1205262166       -3.3900467230
 C         -3.6640524500        4.4549173713       -3.3697617611
 C         -3.7788433130        5.1179315610       -2.1591000916
 C         -3.5290785910        4.4785052581       -0.9557902568
 C         -3.7804074803        5.1204486728        0.3933216634
 C         -3.7712141633        6.6483468124        0.3267369666
 C         -5.1811626579        4.6609583355        0.8577312409
 C         -2.7859359783        4.5727380030        1.3983861765
 C         -2.3224472081        5.3097361468        2.4756777549
 C         -1.5534301852        4.7331816207        3.4731105914
 C         -1.2629559437        3.3820115143        3.4173863600
 C         -1.6889770218        2.6302239437        2.3420527647
 C         -2.4185600501        3.2194642162        1.3071455554
 C         -3.6749015784        0.2287917012        0.1646474858
 C         -3.4826190728       -1.1248022603        0.1049115267
 C         -2.1897256195       -1.6695707134        0.0318333834
 C         -2.0378818666       -3.0880052920       -0.0358965621
 N         -3.0944132890       -3.8852782285       -0.0215857351
 C         -2.9633855675       -5.2102766592       -0.1002316697
 C         -4.0498959943       -6.0868487577       -0.0940886286
 F         -5.3001030008       -5.5654947159       -0.0082209522
 C         -3.8991284054       -7.4583269589       -0.1742178788
 C         -2.6241904099       -7.9967279642       -0.2636483159
 C         -1.5112639849       -7.1758163163       -0.2739951836
 C         -1.6437721138       -5.7898674253       -0.1956194834
 N         -0.5907264834       -4.9696851188       -0.2040003711
 C         -0.7329677640       -3.6538384208       -0.1287763499
 C          4.3113163558        0.1440682388       -1.3022364234
 C          3.6414120610       -0.1555341570       -2.4943520668
 C          4.0920826335        0.3340740866       -3.7007010176
 C          5.2230738036        1.1317857099       -3.7415389925
 C          5.8893847249        1.4255308916       -2.5658998629
 C          5.4583583500        0.9472440288       -1.3364847408
 H          6.7046170915        3.3038888406       -0.7877809728
 H          5.2306316379        3.2025996760        0.1755185594
 H          6.8080957568        3.1223748728        0.9602163823
 H          8.1565501415        1.1888608037       -1.0965111880
 H          8.2629457978        1.0091622193        0.6517701566
 H          7.6521986153       -0.3196189924       -0.3342972163
 H          7.0794888987        1.5168599334        2.4682633786
 H          6.1335333169        0.5775462111        4.5107940145
 H          4.0807780287       -0.8089013679        4.3925685614
 H          3.0224071903       -1.2329144535        2.2274220355
 H          3.7986674320       -3.0079592553       -0.2651095088
 H          1.7577897540       -4.4357465635       -0.2706256382
 H          1.3698892699        0.4689906789        0.0157659003
 H         -0.4641454782        1.2625099088        0.0210942908
 H         -2.7152058500        1.4322362072       -2.2250612217
 H         -3.2205146490        2.5888361427       -4.3261756019
 H         -3.8718618853        4.9781943515       -4.2903493720
 H         -4.0814302041        6.1520224662       -2.1700364798
 H         -4.5322803614        7.0017361153       -0.3629615192
 H         -4.0077101473        7.0722416081        1.2984478921
 H         -2.7999794510        7.0167437933        0.0039482102
 H         -5.4027388493        5.0724376608        1.8401178277
 H         -5.2271636503        3.5764758887        0.9204751407
 H         -5.9378768774        4.9990934464        0.1530727774
 H         -2.5690597583        6.3550154249        2.5619019860
 H         -1.2079878552        5.3334024041        4.3006533989
 H         -0.6979406244        2.9104266797        4.2072538312
 H         -1.4579428362        1.5777043479        2.3037537857
 H         -4.6671545919        0.6496952224        0.2212412105
 H         -4.3155992476       -1.8103994068        0.1148004296
 H         -4.7765720154       -8.0844679794       -0.1662648438
 H         -2.5011929367       -9.0664333334       -0.3274354076
 H         -0.5168127084       -7.5871432904       -0.3434155162
 H          2.7622869455       -0.7799038187       -2.4654512772
 H          3.5605535824        0.0910970095       -4.6082584855
 H          5.5855611322        1.5207996101       -4.6804224897
 H          6.7706788736        2.0466781580       -2.6144629779
  92
  -142.425474300000       3.471201301265424E-002 !
 C          4.7092132890        2.8118236925       -0.9553770343
 C          5.7414010230        1.7211210981       -0.5886125622
 C          7.1242265821        2.3703710456       -0.5177776212
 C          5.3075644036        1.1300584501        0.7371584153
 C          5.8035967923        1.5631505105        1.9561833273
 C          5.2945180063        1.0930062566        3.1552340493
 C          4.2640546213        0.1700780241        3.1474232665
 C          3.7680793472       -0.2956331218        1.9477162550
 C          4.2833435558        0.1715122255        0.7363825212
 N          3.8110271517       -0.3415314899       -0.4627387470
 C          2.6701700482       -1.1864297003       -0.4262462268
 C          2.8029461659       -2.5829372324       -0.4916195512
 C          1.6832795070       -3.3659073645       -0.4314200721
 C          0.4059217303       -2.7981348727       -0.2829603403
 C          0.2643086299       -1.3905741633       -0.1987344233
 C          1.4269672121       -0.6120352902       -0.2830877599
 C         -1.0445821104       -0.8212058979       -0.0097911805
 C         -1.2683841235        0.5594958333        0.0813396099
 C         -2.5273328028        1.0697334655        0.3097692932
 N         -2.7154404608        2.4736348466        0.4184916537
 C         -2.2499963527        3.1354416997        1.5409762878
 C         -1.5892449237        2.4211522863        2.5478880260
 C         -1.0970896235        3.0591099761        3.6654317553
 C         -1.2627468047        4.4259198053        3.8090000843
 C         -1.9411177728        5.1301679036        2.8318871384
 C         -2.4474458627        4.5137900397        1.6958984419
 C         -3.2123141162        5.3391323294        0.6811933657
 C         -4.4408382113        5.9530376207        1.3773038372
 C         -2.2906264495        6.4518069214        0.1479489095
 C         -3.6803592475        4.5018311154       -0.4913474354
 C         -4.3939606908        5.1026484394       -1.5192111277
 C         -4.8170245309        4.3956480933       -2.6293540311
 C         -4.5037188539        3.0513565274       -2.7360961157
 C         -3.7990046506        2.4287709407       -1.7292188148
 C         -3.4001482248        3.1330686728       -0.5866213025
 C         -3.6294091138        0.2107138912        0.4418943989
 C         -3.4444669520       -1.1396654234        0.3281905139
 C         -2.1662398886       -1.6795264214        0.1046668782
 C         -2.0228957014       -3.0957857059       -0.0013081191
 N         -3.0759456215       -3.8936488612        0.0831067530
 C         -2.9540632352       -5.2166980963       -0.0288157085
 C         -4.0381322309       -6.0930420632        0.0476873585
 F         -5.2770211474       -5.5723309671        0.2382880706
 C         -3.8963633130       -7.4629693472       -0.0670763738
 C         -2.6329902927       -8.0001028268       -0.2637338397
 C         -1.5226253380       -7.1795731696       -0.3452111702
 C         -1.6460218882       -5.7951624583       -0.2337951975
 N         -0.5953149128       -4.9751566194       -0.3033767478
 C         -0.7293504506       -3.6605301887       -0.2015453861
 C          4.5897693647       -0.2641161599       -1.6061510196
 C          4.3307801287       -1.0884868442       -2.7033818594
 C          5.1603506889       -1.0716763007       -3.8054395066
 C          6.2612269577       -0.2346652572       -3.8277879430
 C          6.4832926003        0.6319051645       -2.7702824094
 C          5.6498064038        0.6564323886       -1.6643124249
 H          4.9592421790        3.2558928031       -1.9165072656
 H          3.7108945639        2.3861927032       -1.0225097367
 H          4.7026293115        3.5911093997       -0.1961960040
 H          7.3772958876        2.8287003007       -1.4694803508
 H          7.1334303914        3.1636229136        0.2242406067
 H          7.8844754970        1.6357828237       -0.2624422973
 H          6.5979914579        2.2903782072        1.9894482600
 H          5.6971775662        1.4550003231        4.0886519377
 H          3.8512975594       -0.1976979255        4.0745970541
 H          2.9815844348       -1.0338805794        1.9440888431
 H          3.7866889395       -3.0197792227       -0.5748917396
 H          1.7495126821       -4.4419140932       -0.4782881679
 H          1.3731302234        0.4629536723       -0.2186139801
 H         -0.4514443197        1.2564221528       -0.0160801785
 H         -1.4691821671        1.3540832853        2.4529275332
 H         -0.5881422601        2.4860442204        4.4256777644
 H         -0.8787443605        4.9374744435        4.6778993435
 H         -2.0798699210        6.1921312147        2.9649494528
 H         -4.1408363609        6.5766975926        2.2145941082
 H         -5.0132367131        6.5641209992        0.6853805127
 H         -5.0870727033        5.1619119823        1.7529076849
 H         -2.8117291251        7.0737682421       -0.5741311324
 H         -1.4233563670        6.0114620201       -0.3408087667
 H         -1.9424848595        7.0883489770        0.9563516350
 H         -4.6302014267        6.1538882082       -1.4568213412
 H         -5.3762683382        4.8921965449       -3.4069617043
 H         -4.8061356223        2.4856226842       -3.6041403171
 H         -3.5482532194        1.3844727542       -1.8248951974
 H         -4.6074897495        0.6281735742        0.6264647658
 H         -4.2704974253       -1.8279548122        0.4175255080
 H         -4.7716827691       -8.0887575130       -0.0021186126
 H         -2.5168892253       -9.0685945715       -0.3544193344
 H         -0.5373928169       -7.5902707288       -0.4986032549
 H          3.4744485242       -1.7436641631       -2.6923606041
 H          4.9482206782       -1.7194372007       -4.6424706842
 H          6.9297073352       -0.2321098852       -4.6748027180
 H          7.3214816270        1.3061506927       -2.8308718329
