97
 energy: -148.200635550806 gnorm: 0.000198275588 xtb: 6.7.1 (edcfbbe)
C           -1.03385800335440       -0.10545674388628        3.12140014371730
C           -0.78318916988294       -1.56683231446278        2.77073365750039
C            0.69456367821539       -1.84539269734257        2.50619504784291
C            0.93868097292232       -3.29264412398336        2.08329247272794
C            2.39711379551975       -3.53134853413214        1.69778336467949
C            2.68106047291812       -4.92793994517408        1.14023179588574
C            1.89753498065076       -5.32778884087476       -0.11323425403156
C            2.11055242811854       -4.42897749267941       -1.33641868110021
N            1.36037308364467       -3.19608816020954       -1.26310125818790
C           -0.01660432072706       -3.13486753608349       -1.24912192182234
O           -0.74136777167064       -4.10090735862631       -1.37638610825258
C           -0.33877996712745       -1.70712114960739       -1.06005389588836
C           -1.49206075488472       -0.93669891475154       -0.86653995759515
C           -2.86785135398051       -1.27530662532287       -0.78205737620229
C           -3.33020208529934       -2.59844795542889       -0.95387695498695
C           -4.67177398600952       -2.88742111818955       -0.83899426975091
C           -5.59691674868000       -1.89675121824853       -0.54401861935744
C           -5.15703085507178       -0.57766932868961       -0.38361645485144
N           -6.07562901598187        0.43004450411579       -0.06108633696516
C           -7.28090281750289        0.65932669922098       -0.69047791838793
C           -7.83161820928506        0.03260122097299       -1.80032319075887
C           -9.06107662325431        0.47818378497109       -2.24800072702940
C           -9.72613557159194        1.52845717511169       -1.62033256471667
C           -9.16940339116819        2.17516195273906       -0.53222310273379
C           -7.93733444426611        1.74460105334189       -0.06356870638103
C           -7.07373604865509        2.18318537051258        0.99960667509022
C           -7.17308694509253        3.17858211081966        1.96041099985052
C           -6.14335419592852        3.32345571019461        2.87163377877027
C           -5.03470885030580        2.48120678477912        2.84071114631599
C           -4.91374929280477        1.48216571234888        1.89341979542764
C           -5.93347239111755        1.34708795438084        0.96093674117167
C           -3.81715639565336       -0.27224186690701       -0.51152173381962
S           -1.01108431355394        0.74985605372579       -0.63420230801405
C            0.72370847146219        0.38942142934882       -0.73706173747035
C            1.66451045130301        1.39024750741480       -0.45455947918962
C            1.25076921334744        2.70680584615720       -0.10650647840079
C            2.17087903019730        3.67170226283661        0.22113211960198
C            3.53170763052319        3.38973818435208        0.22615942376008
C            3.96060236710133        2.10212316110479       -0.14104438496417
N            5.32612767439130        1.79316183646829       -0.11717574942553
C            6.33776497977629        2.54743546601015       -0.67027080831584
C            6.26415087241037        3.72666384815540       -1.40036430797442
C            7.44666449959742        4.27382480713860       -1.86307314690621
C            8.67329648218579        3.66120821153353       -1.62227686463317
C            8.75007385258592        2.46921655873451       -0.92277831698832
C            7.57838138149802        1.90352677654540       -0.44649712412831
C            7.28352390641373        0.69465641712819        0.27716856909814
C            8.06996455402462       -0.32999342295397        0.77957523715514
C            7.45128543269748       -1.36680145336519        1.45603079184110
C            6.07259212573744       -1.37509210122770        1.64946076619110
C            5.26897220234715       -0.36233674141187        1.16133821352844
C            5.88001508356438        0.66466863939892        0.45328864796299
C            3.05174945815556        1.12784225189475       -0.48638513397378
C            0.86649151199661       -0.99836575430085       -1.00623041551612
C            1.96195609719597       -1.93726209157229       -1.18175611715518
O            3.16674911786816       -1.77499577103753       -1.26464398668885
H           -2.08760262281499        0.06117660945315        3.33456165679958
H           -0.74259821870780        0.54136408709432        2.29635180310244
H           -0.45786019709843        0.18104621884762        3.99887577600111
H           -1.36362233348407       -1.83079424169062        1.88248315879785
H           -1.12910394987081       -2.20309497142389        3.58883030465741
H            1.27433502896639       -1.62216504401873        3.40549991022161
H            1.04755611553957       -1.17619797657882        1.71640160654177
H            0.28491734966570       -3.51963872812358        1.23998235548861
H            0.66159717889778       -3.96499133133525        2.89917080288710
H            3.01905593843880       -3.38910599707717        2.58651515279691
H            2.71122714609014       -2.78226292731487        0.97203458175230
H            3.74916323852826       -4.98916495702755        0.91466283211950
H            2.46462521275911       -5.66766842149503        1.91590276644473
H            0.83001628491794       -5.37422397530498        0.10292888885114
H            2.21291811741096       -6.33576296563606       -0.39210075554723
H            3.16172659049331       -4.14743049404686       -1.43834595318053
H            1.79170765076172       -4.96987188645585       -2.23363937158383
H           -2.62641813896664       -3.38424131625024       -1.17189441032080
H           -5.00802809620560       -3.90536076240500       -0.96696520247725
H           -6.64018242151002       -2.13554714023013       -0.40723527766490
H           -7.31283623263992       -0.76695328289227       -2.30676302662369
H           -9.51297487696083        0.00486982316295       -3.10687499426495
H          -10.68575352669874        1.84682526773718       -1.99906544679041
H           -9.67785314040854        3.00085769809240       -0.05807334719400
H           -8.03939777538696        3.82155973687519        1.99518362501245
H           -6.19984633181966        4.09460779418216        3.62520253098547
H           -4.25214249575713        2.60965792103292        3.57355791359408
H           -4.05769785453978        0.82559374070161        1.88714207551447
H           -3.49344736165173        0.75260958001914       -0.41074852704668
H            0.19557926136454        2.93500093023341       -0.09595705670642
H            1.83491998058592        4.66139670840424        0.49362438460151
H            4.24960891706751        4.12894788422761        0.54439603112662
H            5.31545827786240        4.19425839998503       -1.61468675346250
H            7.41687230872035        5.19246118833410       -2.42967275988374
H            9.57530360048134        4.11911133256285       -1.99952328910042
H            9.70043489042897        1.98583109412218       -0.75508002201098
H            9.14095070739218       -0.31597169231397        0.64542761399221
H            8.04532040017359       -2.17887375401094        1.84787153712711
H            5.61923029458524       -2.19087354669246        2.19185582146358
H            4.20416767515222       -0.37335293930311        1.32978476091340
H            3.40381460240486        0.15896047745408       -0.79852192050656
