97
 energy: -148.272974488612 gnorm: 0.000056913546 xtb: 6.7.1 (edcfbbe)
C           -5.90914064468836       -1.66738963218728        2.92700534413917
C           -4.53577454207482       -1.48215346667964        2.29589158039685
C           -3.86736282748704       -2.81741117043278        1.97812218363654
C           -2.53394185209190       -2.63248359400356        1.25749713909606
C           -1.76494879551176       -3.94606682338960        1.11879010223924
C           -0.45282260812017       -3.77353606029336        0.35022449187360
C           -0.67361225385371       -3.68323362034625       -1.16198224419548
C            0.42719636443687       -2.89290117746082       -1.87028335470807
N            0.45259701429540       -1.51723081711285       -1.41862003020543
C           -0.63728008115725       -0.66440187076948       -1.51968526913406
O           -1.67259736069877       -0.92897972396404       -2.08177308754037
C           -0.20989062996774        0.57357167127251       -0.85928161648391
C           -0.75798056734478        1.79490837470796       -0.58908073141445
C           -2.11878568964387        2.25810213466977       -0.77358007843143
C           -2.37619225958543        3.58209996211193       -1.12855914721591
C           -3.67865002233279        4.00162592808938       -1.32037558074015
C           -4.73250156696763        3.12498691191223       -1.13880174731144
C           -4.48945177122905        1.81026841500747       -0.73962771444937
N           -5.56028371306072        0.94819391978307       -0.49020044662380
C           -6.67433616451498        1.26226830968045        0.26905853029757
C           -6.96846021142309        2.41890040126724        0.97655332939020
C           -8.14959765748698        2.45695222043878        1.69339920113295
C           -9.02024664431667        1.37048015071443        1.72048581380930
C           -8.71799739050425        0.20508009360023        1.04524838831888
C           -7.53601856372115        0.14356337246225        0.31995019617453
C           -6.90231030482561       -0.89658529131220       -0.44028197861109
C           -7.25543230244830       -2.20694878622666       -0.73419855921941
C           -6.39403696045418       -2.96719639475226       -1.49910282482118
C           -5.20613636129303       -2.42664608572164       -1.98504666190044
C           -4.83666582506497       -1.12278709357148       -1.71316449869925
C           -5.68263877798335       -0.36545620208611       -0.91663494226131
C           -3.17927187677889        1.37840390940562       -0.56779388082991
S            0.46260967099491        2.82223713304998        0.11752707101136
C            1.69914759272535        1.57674809648593        0.05632072718946
C            3.03013842460825        1.87662002029817        0.53772567117262
C            3.27038878860681        3.05548741568438        1.25061410539113
C            4.53973474807946        3.34723392076084        1.70784103604228
C            5.58975776751018        2.47913769120049        1.46773122985152
C            5.36824236022478        1.30722487938440        0.74537335077555
N            6.42723200065128        0.43388972465005        0.48532503490602
C            7.66986186535886        0.79793587301361        0.00075531847295
C            8.13538124645656        2.04219570229899       -0.39938289829874
C            9.42843954750949        2.12499398897022       -0.88042274858678
C           10.24323647649218        0.99948661020530       -0.97399169831765
C            9.77606407287140       -0.24612986761920       -0.60467665660932
C            8.47997505214176       -0.35411942762760       -0.11895407464333
C            7.68023961680516       -1.46373908818452        0.31966266978983
C            7.92901254258169       -2.82424598940390        0.44490558848423
C            6.92387278004287       -3.63698938109278        0.92863119369761
C            5.69065670732506       -3.10570383097951        1.29867114903761
C            5.42091730979437       -1.75543128888802        1.18587225941752
C            6.41835819534770       -0.93769353707419        0.67623727513202
C            4.09228065745878        1.00961918096954        0.28165499510380
C            1.16111767104015        0.44102061320348       -0.49588175879412
C            1.56889803160798       -0.93547573705284       -0.82955244454103
O            2.61722986993624       -1.51178659153950       -0.66178521836463
H           -6.56035407572377       -2.21978757929846        2.25371573610791
H           -6.37030967529870       -0.70361230482679        3.13170421742020
H           -5.83014384839391       -2.21978427300408        3.86104575409624
H           -3.89729303069430       -0.90847440635040        2.97271961995013
H           -4.64078246018675       -0.90954385799900        1.37374124215402
H           -4.53522759474924       -3.41142723306666        1.35021928535084
H           -3.70488685932307       -3.36867283853959        2.90780225989933
H           -1.91884891385326       -1.92024561838048        1.81602453999977
H           -2.72493153761468       -2.20530111854703        0.27066293072816
H           -2.38954315055695       -4.68394352384480        0.61105022171727
H           -1.54752385460888       -4.32893979861689        2.11861080332545
H            0.04100077784518       -2.86653424755833        0.70852989875159
H            0.21500115836139       -4.60980453731542        0.56662493553597
H           -1.62720550845647       -3.19777545133095       -1.37010843087812
H           -0.71186369263378       -4.68424153137789       -1.59370744709550
H            1.41491518947514       -3.30893150018812       -1.65665854356642
H            0.25399598732513       -2.90441733448234       -2.95113998205870
H           -1.55244787057745        4.26558660564382       -1.27129242569303
H           -3.87565236792400        5.01984754461232       -1.62042115283852
H           -5.74717183976769        3.44855160631630       -1.31295711741977
H           -6.29238505404886        3.26057947365735        0.98599046608717
H           -8.39970085165587        3.34863289108388        2.24931873115485
H           -9.93535034802993        1.44077780465198        2.28940674475379
H           -9.37970471361775       -0.64692814796701        1.08430943354733
H           -8.18505207659242       -2.61712008809359       -0.36843377769809
H           -6.64435756560601       -3.99181366417001       -1.73211967765942
H           -4.55486782194873       -3.03768698453393       -2.59213455047226
H           -3.91719617460292       -0.72338098855994       -2.10775997866941
H           -2.98323396327639        0.36993011516142       -0.24173387709537
H            2.45508384982987        3.73520540781763        1.44998546557373
H            4.71259000639143        4.25467807972192        2.26664446011996
H            6.57590928566874        2.69336800632403        1.85005674027908
H            7.50702969187321        2.91910930718343       -0.35315332114571
H            9.81353817112385        3.08393639789345       -1.19485025621662
H           11.24919186517396        1.10597014109061       -1.35193598389171
H           10.40001406772339       -1.12242807769208       -0.69543413418307
H            8.89080049752929       -3.23119662751388        0.17090656643075
H            7.09418727197928       -4.69870089920096        1.02991761678784
H            4.92592205057229       -3.76351615897369        1.68378911089239
H            4.46332494072899       -1.35964392584908        1.48361393599138
H            3.93432846479805        0.10771944552850       -0.28570845337700
