97
 energy: -148.266744198434 gnorm: 0.000051082135 xtb: 6.7.1 (edcfbbe)
C            8.70484101046000        6.25338983465377       -0.52997337907315
C            7.48140360253113        6.61505407163973        0.30331629968214
C            6.34030409987628        5.62148907862103        0.09754975121899
C            5.11656656801475        5.97715248601185        0.93919537865699
C            3.91196783537417        5.07604976566178        0.66506966374471
C            4.13870550331365        3.62908166879662        1.10101079021092
C            2.86299282809134        2.78973971468025        1.07492656585782
C            2.31899548842611        2.60246449871458       -0.34209088096386
N            1.18611490268550        1.70424483054384       -0.35352894143774
C           -0.12103519069849        2.13751276609245       -0.19139210439525
O           -0.42786684387518        3.29777405291802       -0.04873252935150
C           -0.94315738628948        0.91701296096463       -0.25484196834271
C           -2.27177681263566        0.57253711652279       -0.22020666264406
C           -3.47768215035098        1.35681166052968       -0.06464121620897
C           -3.43485323081422        2.74678440838523        0.07678019245737
C           -4.60945141987959        3.46250274247200        0.21503017253227
C           -5.83740613865130        2.82638980509356        0.20511469649915
C           -5.89336165401835        1.43969762274672        0.07371739296589
N           -7.12489407600408        0.77592780754502        0.05755200116120
C           -7.52026873866011       -0.16424226449358       -0.87567764401884
C           -6.85315565179479       -0.63222765721342       -1.99858757807563
C           -7.49674077263697       -1.56481084083614       -2.78956044643251
C           -8.77711620267783       -2.01974110601394       -2.48321023971160
C           -9.45570308303341       -1.53924345584669       -1.38128147547389
C           -8.82929369862398       -0.60164703402718       -0.57086408279280
C           -9.23372464266800        0.10910405342329        0.60996769030200
C          -10.38568766002182        0.09371826592003        1.38511256453050
C          -10.44291796172246        0.90472988942108        2.50074735898224
C           -9.36406246494217        1.71130721594571        2.85554181597970
C           -8.20753602887601        1.74389959927771        2.09986276570510
C           -8.15435517103046        0.95068692011762        0.96291557073079
C           -4.71750231418370        0.71460837914238       -0.05066966811335
S           -2.40940431440637       -1.16205257215633       -0.42817660241079
C           -0.68306334926849       -1.40271469705716       -0.55078652233352
C           -0.16558739195313       -2.74060500032391       -0.74612848136350
C           -1.00712528544321       -3.74465449743961       -1.23398186606118
C           -0.52666463563173       -5.02484834175303       -1.42312833974279
C            0.78832553798071       -5.33057466734428       -1.12379854143516
C            1.63322877726315       -4.34475643738497       -0.61424858083058
N            2.95162998834003       -4.66661266849639       -0.28162912762808
C            4.08829554284969       -3.96855553020475       -0.65506191856428
C            4.21252552730355       -2.82661186052926       -1.43201343536863
C            5.48660965233912       -2.35132150306515       -1.67705693166250
C            6.61583355871651       -2.99586249251950       -1.17757851455931
C            6.49906456904520       -4.14598296335031       -0.42362075278238
C            5.22852103930625       -4.64128047478977       -0.16102579509056
C            4.75111325433103       -5.79165709831596        0.55422978741216
C            5.38386144337722       -6.80261890212630        1.26495184271772
C            4.60858859421494       -7.76941879219007        1.87350173814350
C            3.21887737597820       -7.72486577189065        1.79488284873439
C            2.56704616805773       -6.72877370620607        1.09267447237782
C            3.34157784222481       -5.77126903677595        0.45348123767503
C            1.15646484846112       -3.05190366426346       -0.42996813250376
C           -0.05832990076557       -0.18917722392043       -0.43137945809827
C            1.31570083053977        0.33023556973597       -0.49271694170783
O            2.37088407387977       -0.23728974839216       -0.64378542597417
H            9.50418756512697        6.97351913844653       -0.37126094976632
H            8.45581308948618        6.24511744769005       -1.58904235401132
H            9.07319077534497        5.26640494372352       -0.25833047638523
H            7.14148219573248        7.61738306269155        0.03219369204598
H            7.75539671258063        6.63454279353977        1.36073326103719
H            6.69105777945627        4.62193041033641        0.35974116336457
H            6.06011013566017        5.61062507322018       -0.95863346559824
H            4.83371546614759        7.01105786194355        0.72562226886570
H            5.37781940583460        5.92077166776254        1.99867992213428
H            3.68256216202655        5.11094365237722       -0.40137817148165
H            3.04860295999629        5.47311783052345        1.20433057752181
H            4.88351402789813        3.15797291118641        0.45776442151835
H            4.52995597621997        3.62676147028776        2.12100281282567
H            2.09424082689286        3.26261865555554        1.69048116792079
H            3.07662388936751        1.80302638449889        1.49359568150718
H            1.98010732229396        3.55513924630296       -0.75323513497215
H            3.08855015070672        2.16721859867851       -0.98464027392163
H           -2.48910068689989        3.26138990829931        0.07524183209124
H           -4.56600870481288        4.53604556142538        0.31903763865044
H           -6.75280176269219        3.39294558816496        0.28149081302718
H           -5.86884059831674       -0.27275929486933       -2.25833810267370
H           -6.99656845211732       -1.94613346710512       -3.66760262843451
H           -9.24499952304967       -2.75103287585638       -3.12530470869189
H          -10.45467902804650       -1.87841784194940       -1.15253707986645
H          -11.21462781328927       -0.54462385085469        1.11910930019303
H          -11.33035306841045        0.91003186637251        3.11586921180570
H           -9.43103683529854        2.32239039303078        3.74354240488080
H           -7.37024908322605        2.35800365398237        2.39556760333284
H           -4.76956976522426       -0.36186448702623       -0.12476889550469
H           -2.03349756626403       -3.51052964309637       -1.47510794915324
H           -1.17908801560039       -5.79019000133247       -1.81565030604077
H            1.17198166383563       -6.32451028818001       -1.29569581766719
H            3.35091832372798       -2.31482116579097       -1.82815322532864
H            5.60712933553269       -1.45782572037681       -2.27101724900742
H            7.59420022558632       -2.59084091883990       -1.39059170190900
H            7.37277012124708       -4.65569206432721       -0.04593859303187
H            6.46045838972513       -6.82452838210093        1.34198138457016
H            5.08068423943651       -8.56628072947194        2.42872059838100
H            2.63636395431435       -8.48317128943469        2.29724723878339
H            1.48834382458101       -6.69387580773918        1.05847043700732
H            1.81132209317685       -2.29644906857559       -0.02898576118647
