97
 energy: -148.199609172071 gnorm: 0.000160148609 xtb: 6.7.1 (edcfbbe)
C           -5.85652338090687       -1.66778586868067        2.99272679763750
C           -4.61155558546226       -1.51830678253593        2.12809447060923
C           -3.71218301645623       -2.74996409259856        2.19571384071629
C           -2.46150813475639       -2.58438933499138        1.33687216201488
C           -1.57527867940874       -3.82943549454413        1.35793008581103
C           -0.31105142490406       -3.65903181745430        0.51365697498911
C           -0.59772665033500       -3.70426856778014       -0.98991294680816
C            0.41072371560883       -2.89003281582773       -1.80144834068004
N            0.41364168827223       -1.50127206568754       -1.40005279377254
C           -0.69562092813019       -0.68978021638299       -1.38382094606124
O           -1.79549224634951       -1.00209951375720       -1.79291016161099
C           -0.22573263511710        0.58906022311299       -0.81767125230367
C           -0.79039522181768        1.82906652392130       -0.53831367899672
C           -2.14564706613103        2.27399642769881       -0.57196775987549
C           -2.43634871135598        3.65129427884094       -0.60923067483081
C           -3.74048608962066        4.09255872219558       -0.63855837536102
C           -4.79019632706544        3.18863541818939       -0.60462867621136
C           -4.51863383382636        1.81812965315304       -0.52466299917361
N           -5.58635215052654        0.91541821492679       -0.43852551268996
C           -6.66189194549631        1.04373574617963        0.41653575790042
C           -6.90046252766209        1.99149504221709        1.40310729895096
C           -8.05913198998790        1.87154120332912        2.14785395597039
C           -8.95777291703964        0.83019505705953        1.93145071057489
C           -8.70936537892596       -0.13588517668884        0.97315556703639
C           -7.55329594499666       -0.03609597233815        0.21487506899158
C           -6.96933240270878       -0.85854069226726       -0.81006656562847
C           -7.36548023038524       -2.03827632288691       -1.42083076118137
C           -6.54738043465004       -2.58503344446335       -2.39324830378588
C           -5.35961099709130       -1.96009237163702       -2.76322267357821
C           -4.94542321453991       -0.78064779904091       -2.17249299919409
C           -5.75065032586024       -0.24037148123085       -1.17867033980648
C           -3.21159689175326        1.36356220622293       -0.51899200852835
S            0.48088247281559        2.93185909527859       -0.01588769253394
C            1.75458226404794        1.69246226732660       -0.12950229228194
C            3.06990162681103        2.00512363835162        0.23079996780353
C            3.40440870686848        3.29918619724893        0.72684112332765
C            4.69176528061433        3.60527271934776        1.08992399046138
C            5.70711714825559        2.66273525799023        0.98073367117659
C            5.40081662675357        1.38573793702932        0.47125201240266
N            6.42070016558968        0.43148490223955        0.36996276785558
C            7.66816650712164        0.64697155516372       -0.17485569197818
C            8.17865524161680        1.77962706987797       -0.79611299086488
C            9.47321261304914        1.72302068878384       -1.27876201839392
C           10.24097820505206        0.56749182935844       -1.16440299371741
C            9.72642817357336       -0.57499250555365       -0.57613296673052
C            8.43246088412667       -0.54076854493185       -0.08209349778484
C            7.58635878954183       -1.51860659814841        0.55002004209407
C            7.77280312403518       -2.84180771482903        0.91709756079636
C            6.73020731146406       -3.50825391868409        1.53694496497427
C            5.52534403795364       -2.86374816806771        1.80322915008821
C            5.31734237338989       -1.54414041862965        1.44853916465025
C            6.35058719391921       -0.87726293760894        0.80321053074750
C            4.11544525516738        1.06116267533294        0.10517115483149
C            1.15485518317815        0.49065515877633       -0.60024464329962
C            1.57215851980753       -0.85566568285139       -0.93087361946157
O            2.64988366309701       -1.42019641141302       -0.85486686975411
H           -6.45473790901419       -2.51066316096608        2.65351131533256
H           -6.46993334417148       -0.77106690447938        2.94158875307774
H           -5.58147928084045       -1.83867036379499        4.03149647058751
H           -4.04805405973651       -0.63904987642712        2.45100706172176
H           -4.91009926724878       -1.35993409502108        1.09045401667779
H           -4.27383074337677       -3.62162264023758        1.85121408924280
H           -3.42068263048143       -2.93261584050497        3.23316614672083
H           -1.88513695029207       -1.72949097643833        1.70264316893683
H           -2.76681113199861       -2.36023202479455        0.31292165032593
H           -2.14292502451355       -4.68850079230079        0.99310325891913
H           -1.28822533753627       -4.03748172019551        2.39180287322352
H            0.14781102034992       -2.70146123909627        0.77189105485443
H            0.40899148084624       -4.43987896125255        0.76791740857560
H           -1.59033402421112       -3.30231260611364       -1.19130521790413
H           -0.57834396920215       -4.73534168570507       -1.34630233895442
H            1.43050927667951       -3.25220900735850       -1.64460632523865
H            0.16497983650259       -2.95490598451390       -2.86703093378516
H           -1.62071345762883        4.35803312632893       -0.63628881011308
H           -3.94942697294043        5.15052746699388       -0.69350897958608
H           -5.81234055156268        3.52994683655001       -0.66061204032854
H           -6.19810510940320        2.78747917584090        1.59786521448273
H           -8.26756491747805        2.59766485026865        2.91942714692785
H           -9.85251933954335        0.77119705447606        2.53277285323239
H           -9.39460249661487       -0.95596520601497        0.82249556364105
H           -8.29187324531824       -2.51611845416893       -1.14001836972935
H           -6.83376978631787       -3.50740925251389       -2.87632720943573
H           -4.74171416574498       -2.40580683318078       -3.52756528949915
H           -4.01918790058469       -0.31697803887872       -2.46730105039996
H           -3.01182916086334        0.30815785013809       -0.44538233223180
H            2.62178275288720        4.03706991064801        0.81901153114642
H            4.92147720236677        4.58779079364019        1.47547100742448
H            6.70669679075178        2.88263495116364        1.32056053304471
H            7.58142498323013        2.67070343844899       -0.91408391480173
H            9.89462588496586        2.59189309947177       -1.76180221210766
H           11.24806177022794        0.56177380616497       -1.55352944153980
H           10.31629997169096       -1.47627142315653       -0.50727755621390
H            8.71205863879789       -3.33763769947690        0.72415807829437
H            6.85262226414513       -4.54167301762767        1.82501138381441
H            4.73348266888258       -3.40648158202142        2.29668715243002
H            4.38191762537887       -1.05492492558394        1.66547444476824
H            3.90309121946139        0.08585680750663       -0.30007728697849
