  72
       -112.47405858
 C          1.1116824096        5.9274584317        2.0420817923
 C          1.6254737169        4.6636904732        2.3253250199
 C          1.1396622521        3.5337386624        1.6817901210
 C          0.1353257697        3.6997714284        0.7445176240
 C         -0.4202311163        4.9795473758        0.4755920920
 C          0.0875186173        6.0993680686        1.1284606248
 C         -1.4690633330        4.7787394554       -0.4744930941
 C         -2.3597954760        5.6311546936       -1.1210213003
 C         -3.2498244832        5.0933146059       -2.0329630897
 C         -3.2569875356        3.7299764832       -2.3208826283
 C         -2.3819281378        2.8602089101       -1.6848357567
 C         -1.5075981974        3.3851859676       -0.7495067032
 N         -0.5320720554        2.7496761789       -0.0050886996
 C         -0.2659011727        1.3820465878       -0.0093088120
 C         -1.3140538392        0.4705126473        0.1591315414
 C         -1.0430128645       -0.8986022184        0.1736454768
 N         -2.0668767375       -1.8155102151        0.4053382065
 C         -3.3079237475       -1.8254314584       -0.2029346173
 C         -3.8048675092       -1.0134261482       -1.2079511165
 C         -5.0904029440       -1.2576836774       -1.6693532621
 C         -5.8584048544       -2.2946120467       -1.1434888189
 C         -5.3600248936       -3.1288726287       -0.1598458828
 C         -4.0708474748       -2.9058734004        0.3150149381
 C         -3.2445451436       -3.5670904109        1.2764321872
 C         -3.4314602539       -4.6654207536        2.1104590762
 C         -2.4088999793       -5.0283756626        2.9678838774
 C         -1.2163562805       -4.3098123557        3.0160653546
 C         -1.0042531680       -3.2143250532        2.1903608508
 C         -2.0121719021       -2.8616623161        1.3084241274
 C          0.2640105090       -1.3574317145       -0.0168095610
 C          1.3068047590       -0.4419046787       -0.2005483997
 N          2.5995191762       -0.9104931077       -0.4256606626
 C          2.9432260294       -1.9064018729       -1.3215202428
 C          2.1465625325       -2.6013044265       -2.2161824596
 C          2.7547996509       -3.5466592201       -3.0305601892
 C          4.1255047773       -3.7850315106       -2.9577710150
 C          4.9326978013       -3.0747630839       -2.0880288396
 C          4.3472117106       -2.1159886518       -1.2665255808
 C          4.8612846952       -1.1975602822       -0.2992863979
 C          6.1358380100       -0.9348260654        0.1946014024
 C          6.2816481978        0.0264774887        1.1778019357
 C          5.1813783897        0.7147243243        1.6847794295
 C          3.9022013158        0.4733358742        1.2040213313
 C          3.7498245119       -0.4667505308        0.1996225143
 C          1.0457596394        0.9291393179       -0.1793331279
 H          1.5159080109        6.7860192482        2.5574002782
 H          2.4093623608        4.5589716477        3.0594930700
 H          1.5218755625        2.5546241501        1.9230255906
 H         -0.3170790446        7.0791160329        0.9268010695
 H         -2.3491350987        6.6903553050       -0.9148957548
 H         -3.9467129623        5.7413387741       -2.5432537015
 H         -3.9489421584        3.3433270342       -3.0529751610
 H         -2.3732932768        1.8099314084       -1.9296175427
 H         -2.3127980648        0.8283561391        0.3479211883
 H         -3.2098214036       -0.2222020882       -1.6348384977
 H         -5.4989309444       -0.6350918134       -2.4503947238
 H         -6.8572134988       -2.4530066932       -1.5220326273
 H         -5.9528647522       -3.9411365658        0.2316001299
 H         -4.3591624095       -5.2161594664        2.0885540724
 H         -2.5378416578       -5.8773193530        3.6226712591
 H         -0.4445894544       -4.6045351076        3.7103577334
 H         -0.0865829206       -2.6496793374        2.2521391629
 H          0.4692491375       -2.4149077751       -0.0198438314
 H          1.0880568979       -2.4063880672       -2.2965737842
 H          2.1544261773       -4.1014465854       -3.7349645493
 H          4.5639369933       -4.5322062103       -3.6024980393
 H          5.9960083903       -3.2541377184       -2.0460219859
 H          6.9894449446       -1.4771487536       -0.1818602567
 H          7.2638850874        0.2431002277        1.5707436930
 H          5.3232869011        1.4457203292        2.4657876713
 H          3.0541245151        0.9956510195        1.6165334970
 H          1.8391328902        1.6351234461       -0.3625428661
  72
       -112.47302248
 C          0.9947068346        5.4984113985        2.9224497249
 C          1.4903951831        4.2002117933        3.0129669986
 C          1.0650161330        3.2082217955        2.1435092345
 C          0.1313639586        3.5513059429        1.1792575077
 C         -0.3950748069        4.8641848620        1.0906936046
 C          0.0510550621        5.8432172421        1.9712068777
 C         -1.3634710741        4.8433458585        0.0329572493
 C         -2.1895174435        5.8051724439       -0.5366724596
 C         -3.0133236780        5.4334585045       -1.5843846712
 C         -3.0225385056        4.1284330226       -2.0706209634
 C         -2.2102360428        3.1502687775       -1.5185323777
 C         -1.3904682617        3.5150760455       -0.4624098911
 N         -0.4790988500        2.7541902919        0.2351490508
 C         -0.2342575598        1.3847794963        0.0530682940
 C         -1.2844507344        0.4838723334        0.2059787818
 C         -1.0284051699       -0.9043288128        0.1004960220
 N         -2.0490064817       -1.8056184462        0.3848394772
 C         -2.3650266208       -2.9514773040       -0.3227460474
 C         -1.8338694017       -3.4380287817       -1.5048411717
 C         -2.3519267482       -4.6174041215       -2.0200455780
 C         -3.3851589454       -5.2929816069       -1.3729080104
 C         -3.9466719333       -4.7975936548       -0.2110954089
 C         -3.4467959836       -3.6123725739        0.3206326116
 C         -3.7915401755       -2.8221968885        1.4598139494
 C         -4.7478311562       -2.9503673083        2.4628714571
 C         -4.7874399919       -2.0009465993        3.4672149372
 C         -3.8831251538       -0.9410548993        3.4951611977
 C         -2.9237164655       -0.7897391502        2.5037485693
 C         -2.8992996398       -1.7162067212        1.4742873525
 C          0.2437156883       -1.3440733233       -0.2366920022
 C          1.2828999738       -0.4315001232       -0.4297001390
 N          2.5432541309       -0.8836619835       -0.7956283294
 C          2.7916610530       -1.8362312424       -1.7689560003
 C          1.9142318959       -2.4396562541       -2.6519387060
 C          2.4241213077       -3.3609534044       -3.5565880903
 C          3.7853837995       -3.6616824117       -3.5816389752
 C          4.6772735327       -3.0292169023       -2.7353309292
 C          4.1891675490       -2.0922076386       -1.8272724381
 C          4.8010294583       -1.2356941791       -0.8637248137
 C          6.1192810431       -1.0227154253       -0.4691200292
 C          6.3718880618       -0.1095377432        0.5377596803
 C          5.3362374272        0.5828972990        1.1635433594
 C          4.0142747427        0.3917043941        0.7835683390
 C          3.7521854865       -0.5005390218       -0.2415906499
 C          1.0455525339        0.9510429123       -0.2513177776
 H          1.3496568586        6.2456887627        3.6163512772
 H          2.2147936139        3.9599738873        3.7763547877
 H          1.4350457062        2.1974487961        2.2256553509
 H         -0.3390979804        6.8479585869        1.9164116742
 H         -2.1823685429        6.8201167828       -0.1699823642
 H         -3.6595484499        6.1686007654       -2.0403864112
 H         -3.6711638343        3.8738744883       -2.8949660685
 H         -2.2095514730        2.1413011124       -1.9027149435
 H         -2.2818232185        0.8390234876        0.4028204570
 H         -1.0485748952       -2.9154582119       -2.0256378270
 H         -1.9474549511       -5.0155422130       -2.9377582043
 H         -3.7583177547       -6.2134046082       -1.7966643714
 H         -4.7593221764       -5.3136664428        0.2765192900
 H         -5.4398249837       -3.7783567619        2.4543088592
 H         -5.5225204906       -2.0857085519        4.2536841299
 H         -3.9219909080       -0.2285772471        4.3047185369
 H         -2.2087361016        0.0169818378        2.5540274750
 H          0.4533426986       -2.4009453250       -0.2819211842
 H          0.8665786141       -2.1844507525       -2.6586647907
 H          1.7570465159       -3.8454352820       -4.2526102688
 H          4.1482585449       -4.3911532060       -4.2903929012
 H          5.7328163296       -3.2494580915       -2.7779710034
 H          6.9237410538       -1.5645329311       -0.9422018613
 H          7.3889823407        0.0670661770        0.8548146286
 H          5.5627691486        1.2764116374        1.9584070074
 H          3.2211386502        0.9187671698        1.2892101615
 H          1.8370040287        1.6633958050       -0.4136832032
  72
       -112.47282101
 C          0.9622783193        5.4643118364        2.9448909054
 C          1.4814728987        4.1745879767        3.0234401615
 C          1.0777816566        3.1844152448        2.1417144447
 C          0.1417151434        3.5204070858        1.1774253896
 C         -0.4068773623        4.8248574911        1.0994120612
 C          0.0170890585        5.8020986021        1.9926870160
 C         -1.3699238522        4.7981576151        0.0368517587
 C         -2.2115108630        5.7505475434       -0.5257373540
 C         -3.0239970511        5.3750482845       -1.5808531436
 C         -3.0062902638        4.0756469936       -2.0819094563
 C         -2.1786798707        3.1067233209       -1.5366730007
 C         -1.3712944894        3.4748554210       -0.4721073566
 N         -0.4500356500        2.7227609598        0.2216801788
 C         -0.2055056216        1.3521191786        0.0499039613
 C         -1.2588245515        0.4559178056        0.1989873697
 C         -1.0078837648       -0.9356558152        0.1175808383
 N         -2.0397310217       -1.8204989996        0.4078986663
 C         -2.3657780369       -2.9786555958       -0.2764563601
 C         -1.8015706737       -3.5274681871       -1.4152350324
 C         -2.3403651046       -4.7054325422       -1.9129253444
 C         -3.4266587311       -5.3196278500       -1.2918878673
 C         -4.0194427612       -4.7631654861       -0.1742769300
 C         -3.4984386271       -3.5790073794        0.3395269020
 C         -3.8635129986       -2.7407724690        1.4364248196
 C         -4.8702091967       -2.8000786305        2.3959831690
 C         -4.9172886103       -1.8201075553        3.3699592479
 C         -3.9695881854       -0.7990950247        3.4131002290
 C         -2.9603786269       -0.7161027329        2.4638757081
 C         -2.9301882770       -1.6691752711        1.4588960138
 C          0.2668732324       -1.3833950291       -0.2050524223
 C          1.3070710064       -0.4747937298       -0.4034027672
 N          2.5689205395       -0.9244786829       -0.7697616488
 C          2.8285769506       -1.8467100512       -1.7687472805
 C          1.9543080737       -2.4603561305       -2.6478002905
 C          2.4782218874       -3.3366602837       -3.5887082127
 C          3.8486439480       -3.5844459513       -3.6521567002
 C          4.7347971132       -2.9450772734       -2.8048996193
 C          4.2323389700       -2.0538972740       -1.8596045976
 C          4.8348652492       -1.2033086148       -0.8843070440
 C          6.1521367170       -0.9568080587       -0.5066796682
 C          6.3923493662       -0.0623218192        0.5199616901
 C          5.3458988947        0.5774934596        1.1826684924
 C          4.0246737036        0.3526576408        0.8198046154
 C          3.7746164286       -0.5188566099       -0.2260861787
 C          1.0755595871        0.9106621570       -0.2383240735
 H          1.2998205659        6.2101699984        3.6489159284
 H          2.2073911819        3.9394213071        3.7869661322
 H          1.4666197376        2.1801017263        2.2143890408
 H         -0.3913606773        6.7999150273        1.9469325514
 H         -2.2248814532        6.7612582570       -0.1477230663
 H         -3.6822914315        6.1027907426       -2.0313250596
 H         -3.6459854242        3.8182999953       -2.9123683543
 H         -2.1572806690        2.1022460819       -1.9319491529
 H         -2.2579227070        0.8172410264        0.3743442220
 H         -0.9739430294       -3.0557203847       -1.9184359064
 H         -1.9101044708       -5.1506313128       -2.7967059924
 H         -3.8158026510       -6.2398242453       -1.7015140723
 H         -4.8721321312       -5.2309106187        0.2933127441
 H         -5.5943977568       -3.5999153358        2.3782789497
 H         -5.6912538827       -1.8508792671        4.1223435662
 H         -4.0141569516       -0.0633973423        4.2012492989
 H         -2.2135537814        0.0601721426        2.5287405296
 H          0.4765137512       -2.4406407134       -0.2355120318
 H          0.8976382739       -2.2460010536       -2.6245583851
 H          1.8142655708       -3.8269503292       -4.2837098681
 H          4.2227787879       -4.2783664480       -4.3901884581
 H          5.7965095187       -3.1244820308       -2.8755374235
 H          6.9658206873       -1.4581063479       -1.0078108345
 H          7.4085907087        0.1402493811        0.8239128252
 H          5.5635467558        1.2558101868        1.9930047020
 H          3.2223053305        0.8372035029        1.3529249165
 H          1.8724689666        1.6169285367       -0.4002722447
  72
       -112.47281573
 C         -2.2826172785        5.2700100058        2.7427081128
 C         -2.1584299170        3.9323512423        3.1127512524
 C         -1.5851974940        3.0012939309        2.2569761698
 C         -1.1468004599        3.4416354125        1.0192444858
 C         -1.2383738178        4.8100109052        0.6463009826
 C         -1.8223103276        5.7232281604        1.5197096663
 C         -0.6421484588        4.9232353340       -0.6477502535
 C         -0.4457897239        5.9842958367       -1.5272021733
 C          0.1494075072        5.7308562670       -2.7498005969
 C          0.5373799230        4.4429267710       -3.1133588181
 C          0.3587981217        3.3694738640       -2.2509607148
 C         -0.2115159984        3.6192983670       -1.0138794927
 N         -0.5239613324        2.7392495945        0.0050196225
 C         -0.2595577522        1.3706686854        0.0062345795
 C         -1.2638144058        0.4681693664        0.3690991340
 C         -0.9985721727       -0.9027799915        0.3648503016
 N         -1.9997953357       -1.8046566150        0.7239632339
 C         -3.2991778903       -1.7960212158        0.2536185225
 C         -3.8915098033       -0.9699289940       -0.6871227892
 C         -5.2236101804       -1.1975909856       -1.0053156993
 C         -5.9417674854       -2.2290572403       -0.4040910851
 C         -5.3500657745       -3.0752407751        0.5162185610
 C         -4.0138007667       -2.8707110012        0.8479406553
 C         -3.0954355480       -3.5468547346        1.7101050443
 C         -3.2026913396       -4.6458852769        2.5575137985
 C         -2.0958292943       -5.0245476529        3.2954968312
 C         -0.8956829290       -4.3216893930        3.2131013831
 C         -0.7617479164       -3.2263931070        2.3705144062
 C         -1.8573464022       -2.8573678096        1.6078183000
 C          0.2647352393       -1.3740134331        0.0015931076
 C          1.2663656629       -0.4677256377       -0.3590520486
 N          2.5290121102       -0.9348156095       -0.7202889112
 C          2.7860655536       -1.9649882902       -1.6052416634
 C          1.9047951849       -2.7176234883       -2.3634598228
 C          2.4346707727       -3.6846104119       -3.2073736344
 C          3.8103131813       -3.8878936296       -3.2958409916
 C          4.6985858585       -3.1219663151       -2.5628352270
 C          4.1920698856       -2.1418331656       -1.7139098424
 C          4.7952541127       -1.1718023620       -0.8549421065
 C          6.1128103887       -0.8622305304       -0.5292898036
 C          6.3497476191        0.1413089611        0.3925699418
 C          5.3010120202        0.8271648767        1.0018807421
 C          3.9787915726        0.5414645542        0.6888051804
 C          3.7335247340       -0.4425583425       -0.2543523410
 C          1.0053437826        0.9042695960       -0.3575174712
 H         -2.7382494935        5.9655132177        3.4318033042
 H         -2.5090873019        3.6129933530        4.0820072323
 H         -1.4735442430        1.9716512451        2.5606371161
 H         -1.9070156673        6.7635255526        1.2457905802
 H         -0.7586461224        6.9814713835       -1.2585288710
 H          0.3077776432        6.5427217866       -3.4440105471
 H          0.9801329233        4.2734727727       -4.0827369163
 H          0.6424148046        2.3718378726       -2.5494150096
 H         -2.2391234520        0.8295031744        0.6490686398
 H         -3.3371750255       -0.1821208948       -1.1738268179
 H         -5.7076751000       -0.5660128995       -1.7341811993
 H         -6.9776562854       -2.3738751584       -0.6725778134
 H         -5.9072954655       -3.8820017129        0.9667981376
 H         -4.1340296393       -5.1849275498        2.6377191767
 H         -2.1622377409       -5.8747342016        3.9579946298
 H         -0.0557637327       -4.6293167530        3.8167249261
 H          0.1650228039       -2.6748631605        2.3288291724
 H          0.4676143329       -2.4318507240        0.0004301030
 H          0.8391742957       -2.5528013836       -2.3179412069
 H          1.7680108870       -4.2845334370       -3.8073950072
 H          4.1867448278       -4.6519760377       -3.9596219880
 H          5.7636109079       -3.2730091641       -2.6482935944
 H          6.9290704619       -1.4002435540       -0.9860802565
 H          7.3660488641        0.3936686359        0.6564668199
 H          5.5173185986        1.5901529250        1.7335826165
 H          3.1727101764        1.0636468123        1.1811140661
 H          1.7779346612        1.6010506368       -0.6369181318
  72
       -112.47244541
 C         -2.1513776716        5.3681049146        2.7458595089
 C         -1.9749569522        4.0485551188        3.1567908291
 C         -1.4375454818        3.0964722337        2.3011292187
 C         -1.0857971871        3.4998811998        1.0237626255
 C         -1.2341558623        4.8493186911        0.6045472556
 C         -1.7822761267        5.7832135050        1.4788206871
 C         -0.7307229924        4.9205766944       -0.7322712843
 C         -0.6291605194        5.9434522054       -1.6707461642
 C         -0.1165281718        5.6473521796       -2.9212737097
 C          0.2870030860        4.3557488379       -3.2521085964
 C          0.2038969726        3.3202266673       -2.3310118657
 C         -0.2908342650        3.6132137008       -1.0711835572
 N         -0.5124977001        2.7713551282        0.0011322295
 C         -0.2441466649        1.4011848667        0.0187295071
 C         -1.2388526981        0.5052637832        0.4035556177
 C         -0.9834755848       -0.8698201429        0.3801439880
 N         -1.9773864276       -1.7742883955        0.7441964587
 C         -3.2894672668       -1.7523999232        0.3092759452
 C         -3.9096817295       -0.8930491980       -0.5819093007
 C         -5.2503505994       -1.1116609203       -0.8714130006
 C         -5.9491174776       -2.1676928586       -0.2894693189
 C         -5.3300540392       -3.0478060034        0.5795335389
 C         -3.9844010707       -2.8539323845        0.8805416989
 C         -3.0411762440       -3.5612831735        1.6867858457
 C         -3.1188129099       -4.6984721673        2.4867234371
 C         -1.9907868352       -5.1016983164        3.1780437221
 C         -0.7971211264       -4.3867944795        3.0980207570
 C         -0.6918871020       -3.2546179498        2.3006112017
 C         -1.8078264797       -2.8614669653        1.5811248445
 C          0.2732897044       -1.3402833680       -0.0163322548
 C          1.2716983514       -0.4375856363       -0.3732976495
 N          2.5334257385       -0.9126996890       -0.7370659407
 C          2.7837109972       -1.9185449171       -1.6484760344
 C          1.9012276835       -2.5973129720       -2.4724528523
 C          2.4224184155       -3.5561293365       -3.3301849745
 C          3.7893135698       -3.8242056362       -3.3647794934
 C          4.6791447395       -3.1341510948       -2.5611714356
 C          4.1822787229       -2.1622610827       -1.6976954942
 C          4.7874045206       -1.2614956933       -0.7657639375
 C          6.0974007692       -1.0409527902       -0.3507598812
 C          6.3315551258       -0.0931450622        0.6296288156
 C          5.2879103398        0.6291328297        1.2036784085
 C          3.9735973234        0.4336438418        0.8011694442
 C          3.7335837989       -0.5016788885       -0.1914142765
 C          1.0185161822        0.9370222364       -0.3633621316
 H         -2.5773500618        6.0806240219        3.4365262724
 H         -2.2571736734        3.7604769707        4.1577053315
 H         -1.2885609632        2.0790639573        2.6297042275
 H         -1.9112198087        6.8096502107        1.1718940927
 H         -0.9536237535        6.9432876854       -1.4268279208
 H         -0.0364147455        6.4284865572       -3.6626038545
 H          0.6648822063        4.1528771971       -4.2423270072
 H          0.5010376586        2.3176216193       -2.5985326445
 H         -2.2023792717        0.8711442073        0.7176405511
 H         -3.3710390707       -0.0864314668       -1.0550932330
 H         -5.7557192460       -0.4540021842       -1.5615700560
 H         -6.9924472159       -2.3039958898       -0.5325324782
 H         -5.8733679780       -3.8724275974        1.0144810939
 H         -4.0439050895       -5.2482674569        2.5659087291
 H         -2.0347006472       -5.9815609557        3.8026328967
 H          0.0593362634       -4.7136159269        3.6671110862
 H          0.2297408166       -2.6942953899        2.2619683306
 H          0.4675512895       -2.3996554851       -0.0480652134
 H          0.8434429264       -2.3821880136       -2.4603752379
 H          1.7566833149       -4.0995442768       -3.9828553618
 H          4.1585814322       -4.5812302927       -4.0405391229
 H          5.7378122894       -3.3388623281       -2.6027111292
 H          6.9096396086       -1.6059454713       -0.7814086564
 H          7.3418186944        0.0864158027        0.9662020883
 H          5.5016302381        1.3493987987        1.9783206508
 H          3.1668875205        0.9835876820        1.2614929394
 H          1.7894734855        1.6335411183       -0.6484861109
  72
       -112.47222170
 C         -2.1801620694        5.3535597184        2.7119617090
 C         -1.9741575998        4.0429884757        3.1379661863
 C         -1.4195108893        3.0923748951        2.2921576194
 C         -1.0809488182        3.4877276334        1.0085919440
 C         -1.2589879420        4.8284201248        0.5741501104
 C         -1.8237488076        5.7610810684        1.4389176543
 C         -0.7628536335        4.8936269396       -0.7660921719
 C         -0.6899666536        5.9060131307       -1.7182397905
 C         -0.1778662414        5.6053733310       -2.9678460413
 C          0.2532826619        4.3191202718       -3.2838172381
 C          0.1978482507        3.2939457624       -2.3493997686
 C         -0.2973581946        3.5918302711       -1.0908482895
 N         -0.4969223604        2.7587723178       -0.0072798394
 C         -0.2252569252        1.3890455653        0.0151866369
 C         -1.2169673740        0.4949357930        0.4057060408
 C         -0.9711397690       -0.8834139232        0.3674108549
 N         -1.9707271426       -1.7794961109        0.7300724574
 C         -3.3009261337       -1.6976026023        0.3569911610
 C         -3.9305371285       -0.7965754501       -0.4854711941
 C         -5.2930035620       -0.9517040312       -0.7065942719
 C         -6.0056456649       -1.9898047620       -0.1089337357
 C         -5.3782480709       -2.9175687559        0.7020798002
 C         -4.0110911652       -2.7871059414        0.9334642121
 C         -3.0591045357       -3.5550189068        1.6692321959
 C         -3.1457858287       -4.7170448501        2.4319449251
 C         -2.0047583136       -5.1891248725        3.0542029640
 C         -0.7897074758       -4.5148176352        2.9457999388
 C         -0.6765795595       -3.3576915080        2.1858640735
 C         -1.8051242427       -2.8980281656        1.5278105760
 C          0.2838274539       -1.3541030704       -0.0395459297
 C          1.2859684941       -0.4522362888       -0.3831124520
 N          2.5531294542       -0.9231180765       -0.7337654142
 C          2.8232462890       -1.9279174699       -1.6405826542
 C          1.9573822134       -2.6159232755       -2.4745875362
 C          2.4981261710       -3.5708947786       -3.3244554601
 C          3.8676149926       -3.8270817497       -3.3417011434
 C          4.7409942803       -3.1275507041       -2.5283427756
 C          4.2244052295       -2.1591275073       -1.6728077949
 C          4.8107701811       -1.2506385501       -0.7361267594
 C          6.1141721512       -1.0165474891       -0.3082420787
 C          6.3292503831       -0.0636805246        0.6715084306
 C          5.2724594176        0.6489095743        1.2333192306
 C          3.9643819862        0.4389526016        0.8185007703
 C          3.7435519665       -0.4999771217       -0.1753336808
 C          1.0363332634        0.9241750260       -0.3704897881
 H         -2.6189843113        6.0649828868        3.3956922589
 H         -2.2471172452        3.7610125354        4.1432071705
 H         -1.2481174679        2.0822805586        2.6323180873
 H         -1.9736632310        6.7812124871        1.1204969486
 H         -1.0350120379        6.9015360716       -1.4852690985
 H         -0.1184585794        6.3787049292       -3.7192453847
 H          0.6324687436        4.1124363025       -4.2727888593
 H          0.5164281935        2.2950314654       -2.6057280982
 H         -2.1728801683        0.8643493623        0.7377207081
 H         -3.3855070631       -0.0048504509       -0.9758626734
 H         -5.8046038844       -0.2579842249       -1.3556332642
 H         -7.0655483566       -2.0757515939       -0.2971688458
 H         -5.9312919672       -3.7306800723        1.1463101308
 H         -4.0879395413       -5.2330071847        2.5343918426
 H         -2.0542372805       -6.0903311569        3.6471189530
 H          0.0783035057       -4.8936993543        3.4627029482
 H          0.2633805152       -2.8304881606        2.1326481264
 H          0.4733129322       -2.4133045652       -0.0893697018
 H          0.8976361679       -2.4104054920       -2.4765544952
 H          1.8454729997       -4.1210743719       -3.9846852003
 H          4.2522786901       -4.5809571074       -4.0124097247
 H          5.8021811164       -3.3213392100       -2.5572830325
 H          6.9362144317       -1.5750559499       -0.7286330411
 H          7.3342489700        0.1274188082        1.0173471079
 H          5.4710570246        1.3737563719        2.0077512685
 H          3.1479232994        0.9815570837        1.2701749546
 H          1.8080888837        1.6193348623       -0.6562696106
  72
       -112.47022968
 C         -2.2136751569        5.0858595083        3.0697914803
 C         -2.0802821150        3.7269761705        3.3499705861
 C         -1.5191819681        2.8565127192        2.4246099409
 C         -1.1046394998        3.3779899935        1.2107890043
 C         -1.2072283155        4.7683206974        0.9279311320
 C         -1.7782632548        5.6197044939        1.8703676228
 C         -0.6311186660        4.9674622056       -0.3631867075
 C         -0.4459545113        6.0851733242       -1.1728674333
 C          0.1303864357        5.9142957206       -2.4183088359
 C          0.5119060090        4.6531180732       -2.8742512441
 C          0.3485727996        3.5247725942       -2.0812308883
 C         -0.2023964886        3.6901329384       -0.8216977094
 N         -0.4930708369        2.7447573778        0.1438104898
 C         -0.2281151648        1.3825410989        0.0659487013
 C         -1.2454581618        0.4574676697        0.4149193662
 C         -0.9750187859       -0.8986021284        0.3479182541
 N         -1.9831596781       -1.8196686745        0.7109568147
 C         -3.0251837756       -2.2204635219       -0.0886330623
 C         -3.3162037775       -1.8503046652       -1.3926960301
 C         -4.4323836209       -2.4171637273       -1.9854331784
 C         -5.2328565758       -3.3248939598       -1.2964900376
 C         -4.9451327804       -3.6968578077        0.0055239865
 C         -3.8301682555       -3.1445445008        0.6230742376
 C         -3.2293197821       -3.2899572847        1.9192161445
 C         -3.5420481295       -4.0274607652        3.0540580097
 C         -2.7210144775       -3.9158111614        4.1630381585
 C         -1.6017840137       -3.0871502414        4.1567389254
 C         -1.2663667032       -2.3424568928        3.0380861275
 C         -2.0863700522       -2.4521252036        1.9255130204
 C          0.2580686451       -1.3735624092       -0.0638001050
 C          1.2645713605       -0.4470407095       -0.4402320020
 N          2.5004511024       -0.9200281186       -0.8646484516
 C          2.6936498692       -1.9411695630       -1.7777732813
 C          1.7609277288       -2.6631192594       -2.5029397391
 C          2.2275550672       -3.6233698245       -3.3913088492
 C          3.5934200781       -3.8480465093       -3.5550125193
 C          4.5327120919       -3.1133174918       -2.8543619457
 C          4.0901920292       -2.1400947246       -1.9620901140
 C          4.7533499610       -1.1949152189       -1.1225701287
 C          6.0915995171       -0.9066327189       -0.8671874432
 C          6.3940394347        0.0762660863        0.0574179887
 C          5.3910289279        0.7640499719        0.7392310001
 C          4.0491650271        0.5036839614        0.4932857841
 C          3.7364767080       -0.4581385147       -0.4524726225
 C          1.0079918012        0.9164225260       -0.3631155920
 H         -2.6562878563        5.7336892766        3.8118652357
 H         -2.4099491529        3.3440389481        4.3033338969
 H         -1.3980158027        1.8100650799        2.6593016538
 H         -1.8724086830        6.6751197926        1.6664008862
 H         -0.7532474802        7.0621608205       -0.8330403427
 H          0.2781311566        6.7708039191       -3.0592137226
 H          0.9370085710        4.5493603539       -3.8604907600
 H          0.6284137687        2.5498902323       -2.4501305181
 H         -2.2269474426        0.8073710180        0.6879521644
 H         -2.6920140352       -1.1461354224       -1.9226398909
 H         -4.6853568125       -2.1512378063       -3.0006410140
 H         -6.0947749877       -3.7462892328       -1.7918857389
 H         -5.5709260408       -4.4016983661        0.5311542329
 H         -4.4083100737       -4.6709528874        3.0690563025
 H         -2.9512521575       -4.4803346189        5.0542083688
 H         -0.9847791814       -3.0227958802        5.0402071037
 H         -0.3991538684       -1.6989000854        3.0275365901
 H          0.4675486706       -2.4301535430       -0.0583117595
 H          0.7023848837       -2.4797858215       -2.4003378225
 H          1.5194990002       -4.1996984287       -3.9663288127
 H          3.9207612931       -4.6054470812       -4.2516664172
 H          5.5887125347       -3.2829449384       -2.9971462353
 H          6.8733589538       -1.4458230405       -1.3795798975
 H          7.4271251151        0.3102544765        0.2678149257
 H          5.6594446953        1.5085929625        1.4725193611
 H          3.2801901202        1.0269620126        1.0406447893
 H          1.7768139396        1.6204121990       -0.6396910929
