  72
       -112.47405858
 C          1.1116824096        5.9274584317        2.0420817923
 C          1.6254737169        4.6636904732        2.3253250199
 C          1.1396622521        3.5337386624        1.6817901210
 C          0.1353257697        3.6997714284        0.7445176240
 C         -0.4202311163        4.9795473758        0.4755920920
 C          0.0875186173        6.0993680686        1.1284606248
 C         -1.4690633330        4.7787394554       -0.4744930941
 C         -2.3597954760        5.6311546936       -1.1210213003
 C         -3.2498244832        5.0933146059       -2.0329630897
 C         -3.2569875356        3.7299764832       -2.3208826283
 C         -2.3819281378        2.8602089101       -1.6848357567
 C         -1.5075981974        3.3851859676       -0.7495067032
 N         -0.5320720554        2.7496761789       -0.0050886996
 C         -0.2659011727        1.3820465878       -0.0093088120
 C         -1.3140538392        0.4705126473        0.1591315414
 C         -1.0430128645       -0.8986022184        0.1736454768
 N         -2.0668767375       -1.8155102151        0.4053382065
 C         -3.3079237475       -1.8254314584       -0.2029346173
 C         -3.8048675092       -1.0134261482       -1.2079511165
 C         -5.0904029440       -1.2576836774       -1.6693532621
 C         -5.8584048544       -2.2946120467       -1.1434888189
 C         -5.3600248936       -3.1288726287       -0.1598458828
 C         -4.0708474748       -2.9058734004        0.3150149381
 C         -3.2445451436       -3.5670904109        1.2764321872
 C         -3.4314602539       -4.6654207536        2.1104590762
 C         -2.4088999793       -5.0283756626        2.9678838774
 C         -1.2163562805       -4.3098123557        3.0160653546
 C         -1.0042531680       -3.2143250532        2.1903608508
 C         -2.0121719021       -2.8616623161        1.3084241274
 C          0.2640105090       -1.3574317145       -0.0168095610
 C          1.3068047590       -0.4419046787       -0.2005483997
 N          2.5995191762       -0.9104931077       -0.4256606626
 C          2.9432260294       -1.9064018729       -1.3215202428
 C          2.1465625325       -2.6013044265       -2.2161824596
 C          2.7547996509       -3.5466592201       -3.0305601892
 C          4.1255047773       -3.7850315106       -2.9577710150
 C          4.9326978013       -3.0747630839       -2.0880288396
 C          4.3472117106       -2.1159886518       -1.2665255808
 C          4.8612846952       -1.1975602822       -0.2992863979
 C          6.1358380100       -0.9348260654        0.1946014024
 C          6.2816481978        0.0264774887        1.1778019357
 C          5.1813783897        0.7147243243        1.6847794295
 C          3.9022013158        0.4733358742        1.2040213313
 C          3.7498245119       -0.4667505308        0.1996225143
 C          1.0457596394        0.9291393179       -0.1793331279
 H          1.5159080109        6.7860192482        2.5574002782
 H          2.4093623608        4.5589716477        3.0594930700
 H          1.5218755625        2.5546241501        1.9230255906
 H         -0.3170790446        7.0791160329        0.9268010695
 H         -2.3491350987        6.6903553050       -0.9148957548
 H         -3.9467129623        5.7413387741       -2.5432537015
 H         -3.9489421584        3.3433270342       -3.0529751610
 H         -2.3732932768        1.8099314084       -1.9296175427
 H         -2.3127980648        0.8283561391        0.3479211883
 H         -3.2098214036       -0.2222020882       -1.6348384977
 H         -5.4989309444       -0.6350918134       -2.4503947238
 H         -6.8572134988       -2.4530066932       -1.5220326273
 H         -5.9528647522       -3.9411365658        0.2316001299
 H         -4.3591624095       -5.2161594664        2.0885540724
 H         -2.5378416578       -5.8773193530        3.6226712591
 H         -0.4445894544       -4.6045351076        3.7103577334
 H         -0.0865829206       -2.6496793374        2.2521391629
 H          0.4692491375       -2.4149077751       -0.0198438314
 H          1.0880568979       -2.4063880672       -2.2965737842
 H          2.1544261773       -4.1014465854       -3.7349645493
 H          4.5639369933       -4.5322062103       -3.6024980393
 H          5.9960083903       -3.2541377184       -2.0460219859
 H          6.9894449446       -1.4771487536       -0.1818602567
 H          7.2638850874        0.2431002277        1.5707436930
 H          5.3232869011        1.4457203292        2.4657876713
 H          3.0541245151        0.9956510195        1.6165334970
 H          1.8391328902        1.6351234461       -0.3625428661
