54
 energy: -84.084162437113 gnorm: 0.000025705228 xtb: 6.7.1 (edcfbbe)
O            6.39359546046620       -2.34329642041287        1.14744636752174
C            5.95993888635622       -1.33717342747674        0.62153882420190
C            6.86626171172215       -0.29655716173429        0.06963155200458
C            6.54869594876112        0.41758212203303       -1.08359953812489
C            7.43594461958011        1.35288249528313       -1.58391624157249
C            8.63837377294811        1.58988813151236       -0.93706130470005
C            8.96497188715426        0.87450339684327        0.20395071729025
C            8.08882737631062       -0.07251154657476        0.69870086710124
C            4.50199967255075       -1.08917398959640        0.50217733653895
C            3.64139329051233       -2.18191304154768        0.40781609860820
C            2.27826275085842       -1.99611897778939        0.31855833757498
C            1.73435863609774       -0.71172536392232        0.33894928233654
C            0.28312398705059       -0.50930913293928        0.24959694655852
C           -0.59687233129215       -1.34781949071247        0.93208631330135
C           -1.96078628421122       -1.15239557975695        0.86126393468332
C           -2.48116138391471       -0.11881228385589        0.08602689022523
N           -3.86400182530562        0.07829882644682        0.00604909955730
C           -4.52148904142461        1.27925227196996        0.19193883472047
C           -4.01180758308722        2.52220122919476        0.53880259196830
C           -4.90440691096101        3.56591360046381        0.69156231822379
C           -6.27407141284475        3.38407465359763        0.51434012079887
C           -6.78954891989750        2.14406262711654        0.19440232263801
C           -5.91220246901647        1.07957693261907        0.03558686714676
C           -6.09376937623885       -0.31303392519440       -0.26507708228097
C           -7.20992827748487       -1.09340559270966       -0.53588331912834
C           -7.02838172939955       -2.43309036651218       -0.81508774828032
C           -5.75281128902512       -2.99227386698305       -0.84223369116958
C           -4.62721815545583       -2.23614624039406       -0.57635459661049
C           -4.80542539509982       -0.89482424193903       -0.26962969879109
C           -1.60988683170849        0.71731429054000       -0.60805204671382
C           -0.24635224261692        0.52737566042818       -0.51733687509724
C            2.59710718095411        0.37807482214280        0.45672877628332
C            3.96263009676940        0.19565390291765        0.53623615442613
H            5.61959583144082        0.22209946667319       -1.59932662410172
H            7.18962356171407        1.89955070246331       -2.48242159642688
H            9.32429841526206        2.32719312701705       -1.32756313821739
H            9.90590162386797        1.05229727767233        0.70324107431852
H            8.33030328824532       -0.64673409562163        1.58083971213064
H            4.06674609388484       -3.17450390952092        0.39600164474149
H            1.62513235352537       -2.85012816990881        0.21612401247386
H           -0.20474021712456       -2.14043701904833        1.55191268169589
H           -2.63179320932583       -1.78724373418306        1.42023398002387
H           -2.95423723410838        2.67002861830860        0.69786186204204
H           -4.53165051141048        4.54390531930115        0.95842611584203
H           -6.93866859336633        4.22583905335353        0.64001757262612
H           -7.85245387194716        1.99854101319550        0.07398701973340
H           -8.19670141627330       -0.65555424145606       -0.53147853307322
H           -7.88315458741128       -3.05842299620519       -1.02569170910419
H           -5.64033998031813       -4.03979545879041       -1.08016104078837
H           -3.64197572539846       -2.67548431189430       -0.61914607461704
H           -2.01038719518795        1.50368077645620       -1.23020105174347
H            0.41821646437111        1.17155347608252       -1.07407464094604
H            2.18764815075169        1.37627944884703        0.50967900090367
H            4.61327193965650        1.05025834419386        0.65257532125651
