  54
        -83.99446941
 O          6.4303162529       -2.1052216323        0.8965046175
 C          5.9500618601       -1.0580974973        0.4212054539
 C          6.8666248233       -0.0019861598       -0.0753644814
 C          8.0605027249        0.2257945838        0.6083193425
 C          8.9496772025        1.1794165805        0.1531859617
 C          8.6716285025        1.8989481333       -0.9983581859
 C          7.5031035221        1.6498910394       -1.7012519318
 C          6.6028374420        0.7037438013       -1.2484200680
 C          4.5312745947       -0.8279139843        0.3642695632
 C          3.6626290053       -1.9244475317        0.6082419304
 C          2.3105358749       -1.7777447391        0.5670300447
 C          1.7028624233       -0.5215466568        0.2974429113
 C          0.2841405426       -0.3665788077        0.2354733496
 C         -0.3181306228        0.7069322977       -0.4693260811
 C         -1.6764498277        0.8517581330       -0.5409706660
 C         -2.5284785170       -0.0713211474        0.0865816372
 N         -3.9096541398        0.0686320403        0.0062059682
 C         -4.8088972022       -0.9393031124       -0.2847737289
 C         -4.5723416205       -2.2672330020       -0.6154304204
 C         -5.6647061374       -3.0670100910       -0.8964230029
 C         -6.9621926177       -2.5622236956       -0.8647672451
 C         -7.2021945405       -1.2319030616       -0.5694026756
 C         -6.1224847737       -0.4115193317       -0.2827079414
 C         -5.9992055686        0.9872099100        0.0299367858
 C         -6.9184184783        2.0116567267        0.1929579201
 C         -6.4534813996        3.2697325219        0.5329409636
 C         -5.0947650730        3.5032324896        0.7299956970
 C         -4.1597484989        2.4967346650        0.5736304745
 C         -4.6166064117        1.2399761272        0.1987902430
 C         -1.9560698297       -1.1406591212        0.7944303945
 C         -0.5974109153       -1.2802317142        0.8678306331
 C          2.5812166562        0.5800595816        0.1140794584
 C          3.9367023814        0.4420405190        0.1671809148
 H          8.2699001512       -0.3460760582        1.4997078854
 H          9.8660176446        1.3592297579        0.6964681881
 H          9.3696840574        2.6416928389       -1.3557353542
 H          7.2949646958        2.1904951013       -2.6134780281
 H          5.7109285484        0.4897671477       -1.8191132641
 H          4.1145072025       -2.8874748856        0.7923988505
 H          1.6875340814       -2.6499271127        0.6953170757
 H          0.3072809902        1.4009859225       -1.0082216016
 H         -2.1080253817        1.6494184533       -1.1278067428
 H         -3.5696666341       -2.6618875760       -0.6688689324
 H         -5.5070730696       -4.1039070097       -1.1520252486
 H         -7.7897278414       -3.2186283856       -1.0875614723
 H         -8.2064753473       -0.8366562760       -0.5674786764
 H         -7.9737682014        1.8268541974        0.0630951968
 H         -7.1527888849        4.0819439473        0.6618296000
 H         -4.7644123062        4.4899145545        1.0175612420
 H         -3.1123286233        2.6815921687        0.7545971538
 H         -2.6025984441       -1.8246260400        1.3245740353
 H         -0.1892729533       -2.0814377226        1.4631564239
 H          2.1649148945        1.5685434140       -0.0119443078
 H          4.5643308650        1.3172191957        0.0866263215
