54
 energy: -84.084182579616 gnorm: 0.000029493844 xtb: 6.7.1 (edcfbbe)
O            6.44111319123785        2.21869486661111        0.65097261536287
C            5.97489302693622        1.14613471542737        0.32033275726999
C            6.84742464658697       -0.00210504377991       -0.03925828674755
C            8.07351660864202       -0.13778436601271        0.60808119320568
C            8.91966689025814       -1.18232448347799        0.28849807047581
C            8.55937564830851       -2.08774344397325       -0.69678805483898
C            7.35355217927538       -1.94316743096980       -1.36425276064219
C            6.49626787456234       -0.90853234784863       -1.03722049091426
C            4.50972236389602        0.92160684921688        0.25837852845913
C            3.67753771363280        2.00234859472887       -0.03021603511066
C            2.30946070398618        1.84089701358198       -0.08098658495541
C            1.73089517335401        0.59893513319841        0.18204205887009
C            0.27402499400581        0.42596792358158        0.13631583993321
C           -0.38101305404818       -0.36339676441388        1.08054956871230
C           -1.75103515139465       -0.52165469576572        1.04502394305447
C           -2.50211194182255        0.09624914112219        0.04802446001376
N           -3.89050834413423       -0.07084999341375        0.00319051504132
C           -4.82449632166908        0.94143279210253       -0.10669753005234
C           -4.63854407375867        2.31578636805016       -0.14539976220860
C           -5.76154532014092        3.11658915375811       -0.22890337923986
C           -7.04308344345864        2.57166181727909       -0.26445169020462
C           -7.23546636817710        1.20614620174215       -0.20095572219944
C           -6.12209778732118        0.38065158405166       -0.11664678632237
C           -5.95329458527197       -1.04190655246566       -0.01369444999388
C           -6.84086533207267       -2.10955197315864        0.00723943553044
C           -6.33307625287121       -3.39034049184544        0.09363711525764
C           -4.95900291441975       -3.61390939631130        0.14279069821518
C           -4.05624909675681       -2.56794538951817        0.12329916188658
C           -4.56143598169459       -1.27719675422887        0.06218226732993
C           -1.85585787606258        0.88142337938474       -0.90367854980255
C           -0.48728600736199        1.04843407131605       -0.85197506498440
C            2.56540730102010       -0.47323500905858        0.49839136444839
C            3.93630333298843       -0.31909749544227        0.53148278522830
H            8.34141673631069        0.58326878979698        1.36606084528212
H            9.86343126912879       -1.28901450982043        0.80248511532248
H            9.22172119169569       -2.90225182294358       -0.95071990987670
H            7.08095413715837       -2.64005645934800       -2.14325932812609
H            5.56474259672962       -0.78791690163620       -1.57118756003519
H            4.12883033354398        2.96531561751454       -0.21822486768174
H            1.67650844291751        2.68833725623711       -0.29920880653953
H            0.18705651049863       -0.83079667720607        1.87118312662257
H           -2.25128101049561       -1.11005400190605        1.79958744006789
H           -3.65096441320722        2.74947728182402       -0.09888954134906
H           -5.64280295863153        4.18956122762409       -0.26327188874943
H           -7.89519747187498        3.23142480593910       -0.33265358127845
H           -8.22900073819686        0.78395243615228       -0.21116532332874
H           -7.90501131037351       -1.93642151890045       -0.04807757490900
H           -7.00598935953361       -4.23463544970939        0.11381387887595
H           -4.59039273705331       -4.62791510290239        0.19337243979028
H           -2.99282102143420       -2.75342288570063        0.14244956903213
H           -2.43176747039784        1.34323197270933       -1.69164076230466
H            0.00393155587585        1.64376587688142       -1.60738576763272
H            2.13273925010294       -1.44215208068901        0.70044301909534
H            4.56534935578280       -1.15808876391512        0.79148168687248
