  54
        -84.08413956
 O          6.4476811738        2.2314983202        0.6156337571
 C          5.9771024296        1.1567277054        0.2990407134
 C          6.8444064954       -0.0011620650       -0.0431078123
 C          8.0544894059       -0.1526968623        0.6298084072
 C          8.8919143416       -1.2101422233        0.3297636204
 C          8.5397862946       -2.1116841002       -0.6618828369
 C          7.3509876085       -1.9504824384       -1.3555524697
 C          6.5016404594       -0.9036189404       -1.0474799819
 C          4.5115798949        0.9351933213        0.2403790764
 C          3.6793594990        2.0186306358       -0.0384303601
 C          2.3110095731        1.8585037110       -0.0871780644
 C          1.7325443138        0.6148113785        0.1676433924
 C          0.2758540660        0.4405229724        0.1229047566
 C         -0.3761187784       -0.3543426398        1.0647072357
 C         -1.7455003611       -0.5166436487        1.0292273208
 C         -2.4990307871        0.1022046518        0.0344974998
 N         -3.8867437842       -0.0700387864       -0.0086898201
 C         -4.8256362610        0.9389237409       -0.1075047877
 C         -4.6453560522        2.3139531429       -0.1488135210
 C         -5.7722575696        3.1105249989       -0.2194011951
 C         -7.0521058208        2.5608374132       -0.2390816446
 C         -7.2385763359        1.1946048715       -0.1735420453
 C         -6.1211695265        0.3732650777       -0.1031794020
 C         -5.9460497954       -1.0487808811       -0.0035721236
 C         -6.8292027535       -2.1199125878        0.0252933738
 C         -6.3155164245       -3.3989210451        0.1032568085
 C         -4.9401277402       -3.6173707455        0.1360815481
 C         -4.0417164981       -2.5678329308        0.1088360711
 C         -4.5525913705       -1.2789240537        0.0564569595
 C         -1.8558618841        0.8930475937       -0.9145217813
 C         -0.4877351093        1.0645839584       -0.8624723802
 C          2.5670090482       -0.4601630078        0.4746631784
 C          3.9378824124       -0.3070885216        0.5062748986
 H          8.3171800234        0.5658060658        1.3919856976
 H          9.8223603641       -1.3302237321        0.8646484963
 H          9.1947836751       -2.9369383860       -0.8996209728
 H          7.0847801721       -2.6448668611       -2.1389786809
 H          5.5835340764       -0.7698093165       -1.6012617765
 H          4.1312237100        2.9823692809       -0.2211690585
 H          1.6778701903        2.7077036081       -0.2980777256
 H          0.1939578231       -0.8226668365        1.8533468012
 H         -2.2437308946       -1.1092341801        1.7818453404
 H         -3.6590545463        2.7515598190       -0.1137202330
 H         -5.6579105644        4.1839073257       -0.2558688024
 H         -7.9074305290        3.2174287024       -0.2968584973
 H         -8.2305476985        0.7686246650       -0.1720329385
 H         -7.8945858516       -1.9508905752       -0.0177125837
 H         -6.9849584124       -4.2458271052        0.1291185808
 H         -4.5670197765       -4.6300491004        0.1799121818
 H         -2.9773887208       -2.7491188130        0.1154886785
 H         -2.4333956677        1.3556737738       -1.7007931532
 H          0.0014128971        1.6650033363       -1.6152171269
 H          2.1339885445       -1.4302365519        0.6703186500
 H          4.5666620227       -1.1484202836        0.7590732568
