171
 energy: -250.393985928991 gnorm: 0.000050431394 xtb: 6.7.1 (edcfbbe)
C            9.55919146046688       -4.66414725081309        0.89950241664445
C            8.19569438549884       -5.25351777400811        1.27097979331874
C            8.11424498380599       -5.33390801133619        2.80205050106156
C            8.10780354790399       -6.66475990014127        0.67294349597807
C            7.03646546873189       -4.41858942353657        0.74640721563888
C            5.72618762234187       -4.83384019296615        1.01743052117249
C            4.61405163285284       -4.14587723631293        0.57669405781680
C            4.81139249902619       -2.99672485815435       -0.17343371633502
C            6.11965790272646       -2.53943127626455       -0.42872959815294
C            7.22159733403049       -3.25356681128350        0.02126726546719
C            5.98599702365675       -1.29700894743998       -1.13479581752173
C            6.91549029598768       -0.39724789360202       -1.63569599164583
C            6.48448544703637        0.74594927165761       -2.28661399316199
C            7.45281944858223        1.76608153583664       -2.86625981331240
C            7.03708785496685        3.17786180886791       -2.43068583577454
C            8.89258540774609        1.53256524052487       -2.39955666610386
C            7.41313196736164        1.66365992566379       -4.39769108798658
C            5.10686270573745        0.94274450454578       -2.44492283814461
C            4.16111016309664        0.06404032140640       -1.95639035204560
C            4.60381795530014       -1.05755732763474       -1.27261339059568
N            3.89841311030194       -2.09972699809798       -0.69775760287446
C            2.51067461087764       -2.24068630895267       -0.66243440105741
C            1.92812021999705       -3.47438903368139       -0.95378638036693
C            0.55902703452944       -3.63600856038892       -0.87856455579527
C           -0.24986167020979       -2.55758085200770       -0.54203886388176
N           -1.65858497450311       -2.71497646821663       -0.42816724705948
C           -2.44108203338686       -2.70087267988765       -1.57141368392869
C           -1.84788457058510       -2.55137845922995       -2.82768877718455
C           -2.61486776449827       -2.54227114001683       -3.97453159774250
C           -3.98992585506688       -2.67877270969648       -3.89516955686011
C           -4.58465158287480       -2.81286065597985       -2.65444718114270
C           -3.83048974696830       -2.82443784732839       -1.49111145602878
C           -4.54372123399786       -2.92841182021624       -0.16225649231144
C           -5.52095902209641       -4.08548550251917       -0.16185792177941
C           -5.24818257170457       -5.43156956956297       -0.25993821206186
C           -6.31003462084763       -6.32619288517038       -0.24605559331809
C           -7.61643989010577       -5.87459234798443       -0.13802483641458
C           -7.89562635528564       -4.52072577100590       -0.04013678952377
C           -6.84054386690598       -3.62371309617613       -0.05176386995303
C           -6.81905568508519       -2.17099986225723        0.03660662794775
C           -7.85651884101119       -1.25553729011010        0.12485657953175
C           -7.51654801979752        0.08767629628458        0.17509314203270
C           -6.17400023389835        0.49562067479303        0.16246979026730
C           -5.13925278139642       -0.41301905415584        0.06931878618334
C           -5.48121520933178       -1.74795156302673       -0.00313020891507
C           -6.07166415744021        2.01130008804163        0.20108105365884
C           -7.52881026078861        2.40951607588582        0.20592028116752
C           -8.06717178118259        3.67768966539229        0.22009866435024
C           -9.44914759713014        3.81198316837998        0.23700295996952
C          -10.27011649267923        2.69452808584812        0.24326279405930
C           -9.73320617364564        1.41690976521289        0.22970507400810
C           -8.35545622181023        1.27627352975086        0.21039185749306
C           -5.33115752151016        2.44813467933251       -1.03974257488514
C           -5.99407619978948        2.45983393383181       -2.25670203148535
C           -5.31391132526386        2.67034628277310       -3.44176842336699
C           -3.93949429888371        2.82132350556747       -3.40962028505932
C           -3.26489583886156        2.82522441329964       -2.20490333298193
C           -3.95177131159496        2.68335392105585       -0.99760631460222
N           -3.28993879504930        2.73723655752227        0.22785560704913
C           -1.88278371795750        2.82614586157011        0.28817768005012
C           -1.19836864095402        3.90010260636559       -0.27913825226524
C            0.17899967824734        3.94348648326370       -0.23779313340138
C            0.89869475906862        2.92311757296119        0.38283528030369
C            2.35930805888702        2.97303209358901        0.40120782454744
N            3.03003784154147        1.90962499949071        0.83195973193873
C            4.35683200541284        2.02737149342565        0.84077914108793
C            5.14683810785527        0.90825092945205        1.34932515214381
C            6.53738452998198        0.94875774818584        1.28025188594159
C            7.28650035900227       -0.08768141197777        1.80081509084302
C            6.65801617370702       -1.16928429766474        2.39600358986790
C            5.27484106510900       -1.21715621746451        2.46483840460283
C            4.51989021574685       -0.18595657625185        1.94304347398961
N            5.00638280369399        3.12445562594753        0.45895090643392
C            4.25518249821441        4.14271884515371        0.05990051039781
C            4.95529463457459        5.40680285248121       -0.34869628834949
C            3.99389323631586        6.58692166742567       -0.49744476697206
C            3.43801470278970        7.02702010074583        0.85368015325201
C            4.57038830828230        7.36670909240887        1.81718485006277
C            5.49846234743278        6.16816574579760        1.98692756779384
C            6.07640680468432        5.74317873684289        0.64084482223755
N            2.93381141128816        4.10358258290298       -0.00250417393358
C            0.21125273476766        1.87985536894065        1.00063763289389
C           -1.16613465725750        1.82881128432574        0.94917639803070
C           -4.00551448678215        2.78111740408939        1.42231950532703
C           -3.38323806794950        3.20256738871841        2.59964276266353
C           -4.08148659585279        3.25197801728828        3.78892209437853
C           -5.41859455008892        2.89718087455416        3.82725971241224
C           -6.05003069290519        2.51116350490293        2.65944718621386
C           -5.36366960944786        2.45739777309005        1.45606490402950
C           -3.58961825125657       -3.00831740140423        1.00334695072416
C           -4.10942022876129       -3.18398811810843        2.27666846062743
C           -3.28704270536499       -3.24760616730880        3.38614493690653
C           -1.91764663493061       -3.13591185459983        3.21827209335980
C           -1.38233354760889       -2.96064484703465        1.95845474338291
C           -2.20782840446889       -2.88797079793164        0.83274631314425
C            0.32454742674960       -1.31744798077306       -0.29452730213489
C            1.69541934975568       -1.15816680061718       -0.33708369426278
H            9.68508669623681       -3.67036451643657        1.32323598914233
H            9.68008149824792       -4.60946961014848       -0.17984390249161
H           10.34917131294412       -5.30006295426976        1.29438426351529
H            7.18579238430811       -5.79408930218729        3.12808612837354
H            8.94123939166094       -5.92452529885946        3.19091964916704
H            8.17073163970057       -4.33759101772956        3.23600323047686
H            8.94155021114487       -7.27240833799474        1.01878507282610
H            7.18432956840906       -7.16004926829045        0.95961587225796
H            8.14419146502679       -6.61439632878894       -0.41334467317932
H            5.56437577226932       -5.72820703786468        1.59996839650438
H            3.62353331052443       -4.49183055210735        0.83164256164579
H            8.20502269124722       -2.87274664009734       -0.19738631465272
H            7.96235593104011       -0.61391441618126       -1.50567127380905
H            7.81099342666069        3.89680496572755       -2.69258811988502
H            6.87887420683050        3.20714055698253       -1.35496239540463
H            6.11697721615988        3.48514985818074       -2.92098308958362
H            9.27728811615336        0.58355953541584       -2.76491905961938
H            9.53405130154908        2.32103426859095       -2.78855644109533
H            8.95362205329195        1.54801630599686       -1.31377542949309
H            7.72552810685952        0.67162887280026       -4.71746207280341
H            8.08150653984388        2.39806962968618       -4.84274379856834
H            6.40807953681316        1.83959953539108       -4.77308306942769
H            4.75371058712323        1.81384695565007       -2.97576620715975
H            3.11035450524156        0.25059388934904       -2.12013378334265
H            2.55498780057560       -4.30227303421677       -1.24759614495382
H            0.10864077302659       -4.59463378443512       -1.08948231772982
H           -0.77676121444895       -2.43792852326141       -2.90001770459985
H           -2.13307323695197       -2.42639672220698       -4.93411833797919
H           -4.59438298093821       -2.67353960901200       -4.78892599738855
H           -5.65827659244207       -2.90782079483245       -2.58004553255340
H           -4.22997544993184       -5.78292735038373       -0.34449876186237
H           -6.11656752474200       -7.38626862244587       -0.32051537008576
H           -8.42722667634185       -6.58865051141145       -0.12984362417999
H           -8.91521265331062       -4.17454333532245        0.04429203626013
H           -8.88769720860790       -1.57477430934329        0.13926048256675
H           -4.10664571880864       -0.09711045086643        0.03612640261767
H           -7.42670674315973        4.54776730868004        0.21758487064262
H           -9.88980857060578        4.79805167289186        0.24621312278922
H          -11.34279169011149        2.82261842173772        0.25828752237708
H          -10.37749029927534        0.55021091239638        0.23422230820471
H           -7.05934113372994        2.28191846799940       -2.27140976863970
H           -5.84679900635862        2.68173998925746       -4.37982564311041
H           -3.38186113784567        2.93555724944275       -4.32724575448934
H           -2.19075740343470        2.92114825394947       -2.20868908867392
H           -1.75615071295507        4.70210378011925       -0.73963424090540
H            0.71992047146678        4.76718514150131       -0.67624013054507
H            7.00910406692777        1.80182960965931        0.81940730878527
H            8.36477219412225       -0.05335010282757        1.74677331503194
H            7.24356996846155       -1.97797161999160        2.80652304268004
H            4.78865156893636       -2.06379128899064        2.92649260819956
H            3.44287007590033       -0.20593467046469        2.00036040286951
H            5.41137278069345        5.19747309479620       -1.32403681322552
H            4.53527200146800        7.41866548910973       -0.95445722811057
H            3.17429611298705        6.30591698615951       -1.15941241459762
H            2.79045605400363        7.89597190450806        0.71731657777603
H            2.83246637891474        6.22030472174904        1.27010577787657
H            4.15976415127787        7.66053874576333        2.78562882369092
H            5.14121166162337        8.21246696305492        1.42518099610629
H            4.94074012473280        5.33388931983346        2.41952918336412
H            6.31072362520408        6.41737192338390        2.67337409475909
H            6.71670682616466        4.87003579748406        0.76961893144701
H            6.67805647851922        6.55666415061502        0.22959122808700
H            0.77251534014303        1.11819343114598        1.51844593941051
H           -1.70485063933131        1.02196891411606        1.42726018672057
H           -2.34587947724798        3.50044888777681        2.58002009949525
H           -3.57695202948149        3.57557533840017        4.68710299288262
H           -5.96751924305928        2.92719284571369        4.75573462829426
H           -7.09574828524524        2.24202227839185        2.67781456748216
H           -5.18012976155920       -3.27126731976744        2.39267320980253
H           -3.71031338696533       -3.38391989025355        4.36925558423551
H           -1.25825403948468       -3.18726828424926        4.07214849303697
H           -0.31226023431124       -2.88179037768488        1.84056807031999
H           -0.31292326401975       -0.48156053893948       -0.05270974965017
H            2.13841087348809       -0.20289384856582       -0.09957074474866
