  171
       -250.39367742
 C          9.5776797684       -4.5996867624        0.9668578711
 C          8.2202708054       -5.1940929120        1.3524783718
 C          8.1440134241       -5.2477952687        2.8849690128
 C          8.1433539793       -6.6166605726        0.7803069634
 C          7.0520826872       -4.3789355111        0.8164824867
 C          5.7462395983       -4.8025685814        1.0959143653
 C          4.6268934920       -4.1310637143        0.6479394295
 C          4.8122666955       -2.9904428469       -0.1180009260
 C          6.1158064595       -2.5260365664       -0.3850754439
 C          7.2250432712       -3.2237918211        0.0726636338
 C          5.9692997927       -1.2957479936       -1.1098898441
 C          6.8886219274       -0.3970346295       -1.6315779087
 C          6.4443741079        0.7309400436       -2.2999359920
 C          7.3990844356        1.7495907623       -2.9041085385
 C          6.9827794600        3.1627765047       -2.4735563946
 C          8.8471370610        1.5262918072       -2.4590156426
 C          7.3355172134        1.6343250862       -4.4338097836
 C          5.0642930818        0.9151968986       -2.4519415909
 C          4.1286089898        0.0374415609       -1.9432248107
 C          4.5846758414       -1.0694897492       -1.2445699844
 N          3.8901452490       -2.1081970789       -0.6505837415
 C          2.5033339105       -2.2577534488       -0.6141372702
 C          1.9268276854       -3.4962996911       -0.8960199877
 C          0.5573433769       -3.6601023439       -0.8312921702
 C         -0.2568158019       -2.5802769923       -0.5126230437
 N         -1.6670253436       -2.7385901592       -0.4169915593
 C         -2.4362308273       -2.6999034458       -1.5685879485
 C         -1.8277407545       -2.5318389551       -2.8151677938
 C         -2.5816856091       -2.4969167190       -3.9701764101
 C         -3.9583351492       -2.6270308991       -3.9088300245
 C         -4.5678300016       -2.7816217268       -2.6776856922
 C         -3.8270158858       -2.8184467767       -1.5063302108
 C         -4.5559217724       -2.9414282037       -0.1876769714
 C         -5.5364034536       -4.0954619002       -0.2147188083
 C         -5.2664782092       -5.4408782848       -0.3285770121
 C         -6.3309677133       -6.3324524775       -0.3381013374
 C         -7.6371451322       -5.8785058051       -0.2373229089
 C         -7.9134459472       -4.5253158581       -0.1232663963
 C         -6.8557262534       -3.6313876775       -0.1112934521
 C         -6.8310952915       -2.1800364925       -0.0033502763
 C         -7.8668066104       -1.2625338216        0.0839078882
 C         -7.5236383929        0.0791962785        0.1495133339
 C         -6.1800408312        0.4839733112        0.1518835163
 C         -5.1469256286       -0.4269482567        0.0628564650
 C         -5.4917817142       -1.7603205464       -0.0238654651
 C         -6.0744689869        1.9993896995        0.1952259955
 C         -7.5308941301        2.4007696465        0.1948616743
 C         -8.0668053570        3.6699275114        0.2140139311
 C         -9.4486041975        3.8069679886        0.2236812105
 C        -10.2719915872        2.6912888771        0.2172575725
 C         -9.7376157687        1.4127017792        0.1981359001
 C         -8.3600552814        1.2694115688        0.1864777468
 C         -5.3303028529        2.4351333200       -1.0441662049
 C         -5.9896415866        2.4448723529       -2.2631211988
 C         -5.3062673811        2.6544000336       -3.4464838280
 C         -3.9320880571        2.8066936115       -3.4106315055
 C         -3.2610578860        2.8126044241       -2.2039940741
 C         -3.9512684553        2.6714537252       -0.9984815386
 N         -3.2923876877        2.7268459199        0.2284579481
 C         -1.8856382523        2.8233672799        0.2901740888
 C         -1.2067192514        3.9017913032       -0.2752737928
 C          0.1705442419        3.9512350307       -0.2357311938
 C          0.8957265491        2.9324247071        0.3810367023
 C          2.3563809394        2.9858976439        0.3945081539
 N          3.0294532955        1.9250302415        0.8287465544
 C          4.3559038587        2.0433390039        0.8311126921
 C          5.1492721765        0.9314323807        1.3499344872
 C          6.5395134580        0.9730091821        1.2751702213
 C          7.2920944266       -0.0540808888        1.8090028868
 C          6.6673750695       -1.1272423446        2.4231348194
 C          5.2844966395       -1.1767584249        2.4966853479
 C          4.5260969038       -0.1549892560        1.9615654144
 N          5.0036499945        3.1366759412        0.4351482161
 C          4.2509258673        4.1527685465        0.0348601532
 C          4.9468568818        5.4135601499       -0.3916537518
 C          3.9941306392        6.6079918400       -0.4648435267
 C          3.5213376693        7.0256842136        0.9244154420
 C          4.7107956095        7.3366810746        1.8270369212
 C          5.6354455456        6.1271221688        1.9198715393
 C          6.1280202393        5.7214011209        0.5345020528
 N          2.9285564855        4.1147129704       -0.0168207886
 C          0.2135018322        1.8851029782        0.9979157535
 C         -1.1637065526        1.8282256442        0.9485510682
 C         -4.0106853604        2.7692654464        1.4212892461
 C         -3.3914314010        3.1900084560        2.6004479382
 C         -4.0927714441        3.2391693014        3.7879316295
 C         -5.4299801370        2.8844606520        3.8227239627
 C         -6.0581989855        2.4981521716        2.6532607230
 C         -5.3688021389        2.4445453272        1.4516240943
 C         -3.6159026179       -3.0422001837        0.9877593766
 C         -4.1509533428       -3.2331989501        2.2525115861
 C         -3.3413987929       -3.3167918855        3.3701040378
 C         -1.9696420884       -3.2089886918        3.2195079529
 C         -1.4191952423       -3.0182684865        1.9684703177
 C         -2.2316180362       -2.9268445992        0.8347337709
 C          0.3124356256       -1.3372521954       -0.2676881698
 C          1.6831520340       -1.1751406657       -0.3016156950
 H          9.6947946518       -3.5964267161        1.3702620932
 H          9.6960078703       -4.5654997552       -0.1135905475
 H         10.3744204923       -5.2198901396        1.3730529389
 H          7.2156668041       -5.7001637166        3.2221980021
 H          8.9712165718       -5.8335728308        3.2807213828
 H          8.2044850147       -4.2443814943        3.3019318202
 H          8.9883984219       -7.2076471905        1.1277028366
 H          7.2294295988       -7.1181744988        1.0862640345
 H          8.1672539868       -6.5854147293       -0.3071181380
 H          5.5939431262       -5.6903512258        1.6909629578
 H          3.6399157690       -4.4825673447        0.9090733379
 H          8.2044878939       -2.8380022052       -0.1548678434
 H          7.9380226044       -0.6028451687       -1.5041564415
 H          7.7493043110        3.8835766721       -2.7512655922
 H          6.8386712845        3.1994550453       -1.3962475829
 H          6.0542904966        3.4617126254       -2.9530393688
 H          9.2277865282        0.5730731757       -2.8177104659
 H          9.4794555806        2.3109178318       -2.8701301166
 H          8.9270766568        1.5572889216       -1.3747926065
 H          7.6496712688        0.6419452308       -4.7507145596
 H          7.9915964585        2.3697701330       -4.8951391369
 H          6.3235969519        1.8005261718       -4.7948425821
 H          4.7012287087        1.7751481145       -2.9941969276
 H          3.0754219987        0.2130485296       -2.1032081188
 H          2.5582870764       -4.3252102149       -1.1769635164
 H          0.1105711751       -4.6212789756       -1.0381626897
 H         -0.7551195056       -2.4240634261       -2.8731986868
 H         -2.0885042306       -2.3657624513       -4.9219901898
 H         -4.5525876371       -2.6014702700       -4.8090635187
 H         -5.6426308542       -2.8731356457       -2.6172472774
 H         -4.2484908973       -5.7941425601       -0.4077031782
 H         -6.1397479246       -7.3919036023       -0.4257092892
 H         -8.4500007649       -6.5901695393       -0.2477976810
 H         -8.9328483303       -4.1772698520       -0.0444143184
 H         -8.8990019542       -1.5788465641        0.0844397814
 H         -4.1131574630       -0.1137375942        0.0423418694
 H         -7.4247126547        4.5387827703        0.2208177217
 H         -9.8872348048        4.7938974101        0.2367415775
 H        -11.3444702029        2.8215338663        0.2267640658
 H        -10.3835164868        0.5472027443        0.1932852794
 H         -7.0547734927        2.2664002109       -2.2807975451
 H         -5.8364760457        2.6644929170       -4.3860761604
 H         -3.3718781114        2.9203826791       -4.3267419262
 H         -2.1870231482        2.9098741971       -2.2047077143
 H         -1.7688059732        4.7018440647       -0.7339730240
 H          0.7072319879        4.7781451785       -0.6732755139
 H          7.0083179483        1.8196060432        0.7997093670
 H          8.3701223574       -0.0188691803        1.7506258278
 H          7.2555833133       -1.9283048237        2.8445785367
 H          4.8013122103       -2.0171918216        2.9726052032
 H          3.4492568092       -0.1759501538        2.0222897210
 H          5.3404527813        5.2145593268       -1.3962532964
 H          4.5196944234        7.4424985517       -0.9349476623
 H          3.1353330895        6.3496745162       -1.0847867143
 H          2.8752833682        7.9025976075        0.8431513651
 H          2.9328025919        6.2160402876        1.3595366694
 H          4.3598631248        7.6152230412        2.8230648720
 H          5.2658700436        8.1850080909        1.4183703787
 H          5.0969276848        5.2895910360        2.3698930752
 H          6.4893934636        6.3568175741        2.5609442097
 H          6.7663835543        4.8409601338        0.6106356492
 H          6.7122571423        6.5365634824        0.1020637622
 H          0.7786367203        1.1247035818        1.5132159136
 H         -1.6984004310        1.0184070344        1.4260347790
 H         -2.3540721097        3.4880150975        2.5836774321
 H         -3.5905343495        3.5626770408        4.6874424716
 H         -5.9814703500        2.9148896917        4.7496525858
 H         -7.1038814903        2.2286943598        2.6688129724
 H         -5.2233304156       -3.3165893700        2.3553492209
 H         -3.7765032488       -3.4647047260        4.3464070761
 H         -1.3203873966       -3.2749554087        4.0801121753
 H         -0.3475775515       -2.9413439763        1.8634879743
 H         -0.3289505211       -0.5011150067       -0.0371441172
 H          2.1230215021       -0.2169768614       -0.0699993105
