171
 energy: -250.322102928501 gnorm: 0.000159485349 xtb: 6.7.1 (edcfbbe)
C            9.56232909959893       -4.69091560076765        0.87224519519833
C            8.19799392194663       -5.28499622621082        1.23286481275238
C            8.10975405789621       -5.37731750161895        2.76283720565362
C            8.11368920202758       -6.69135150164656        0.62267343350312
C            7.04034160234489       -4.44683607761164        0.71063603255926
C            5.72948603626746       -4.86162659520781        0.97732535833712
C            4.61890420307409       -4.16885433215519        0.53920678707169
C            4.81912882737522       -3.01625139900478       -0.20469509033264
C            6.12850828457900       -2.55980214365410       -0.45521250534777
C            7.22820527796568       -3.27719394907124       -0.00777590702539
C            5.99860538031403       -1.31241651064271       -1.15478572140202
C            6.93118738841451       -0.41349893023024       -1.64920813015757
C            6.50359873528511        0.73452439591467       -2.29538597019954
C            7.47588189870763        1.75722414783628       -2.86302114247202
C            7.04722391824879        3.16749464055527       -2.43541519811989
C            8.90928143476651        1.52975847181123       -2.37415325851894
C            7.45809322886529        1.65210526418713       -4.39480538693362
C            5.12720902162513        0.93434990057844       -2.45761103714860
C            4.17842155163709        0.05581850639529       -1.97464583555246
C            4.61763083688322       -1.06842437739088       -1.29308750128058
N            3.90864176712178       -2.11411423827390       -0.72638353997600
C            2.52249008736511       -2.24657056120694       -0.68541479001688
C            1.93126547027390       -3.47897834692915       -0.96886158875426
C            0.56171489487760       -3.63355653934537       -0.88834157372943
C           -0.23886535027290       -2.54918701527906       -0.55151115158298
N           -1.64906887961014       -2.70049670427856       -0.42746994411513
C           -2.43674250183932       -2.69640478911295       -1.56473115592029
C           -1.84846856566998       -2.56398376951515       -2.82663462258854
C           -2.62097925873296       -2.56499954550190       -3.96875884113949
C           -3.99732128022202       -2.69330568050592       -3.88032260629413
C           -4.58735067761429       -2.80961602360674       -2.63572298756091
C           -3.82766328309831       -2.81203651504628       -1.47571426343524
C           -4.53294842161734       -2.90348497436950       -0.14286042199232
C           -5.50058256522829       -4.06986307970503       -0.12764359648140
C           -5.21478441257012       -5.41441349857530       -0.20676249762307
C           -6.26884079953721       -6.31821131996995       -0.18590194502624
C           -7.57976691458836       -5.87701137626244       -0.09061844156257
C           -7.87169700979307       -4.52457170195672       -0.01226157713289
C           -6.82461455076115       -3.61832479105901       -0.03046487465636
C           -6.81653711317397       -2.16453781789614        0.04149625640606
C           -7.86231268777778       -1.25721650859465        0.11560077028997
C           -7.53419924517218        0.08929247490151        0.15969994082045
C           -6.19478214505903        0.50679859618237        0.15882224827425
C           -5.15113347370431       -0.39242731465365        0.07551113286830
C           -5.48234777785097       -1.73007203964946        0.00523829191220
C           -6.10407766312684        2.02508820573916        0.19846569979090
C           -7.56453814461523        2.41128201694870        0.17854858948719
C           -8.11195274787246        3.67561654599744        0.17785658803051
C           -9.49508145788048        3.79926924361870        0.17406946779775
C          -10.30767894390922        2.67567914898878        0.17554224403372
C           -9.76130252243124        1.40200921155881        0.17751785373358
C           -8.38237596169617        1.27169752270258        0.17836637375640
C           -5.34118104901061        2.46135298903890       -1.02611024987476
C           -5.97266848637462        2.47804728586363       -2.25886907091312
C           -5.26037005078554        2.69771201186339       -3.42396187414575
C           -3.88591909636555        2.85758007018651       -3.35731260538743
C           -3.24080041565661        2.85365747695238       -2.13863691223252
C           -3.95982921211642        2.69462388532649       -0.94877029091690
N           -3.32821979837201        2.75480248783348        0.28212454166535
C           -1.91326518959430        2.84211696464684        0.36184521526231
C           -1.22560781503026        3.96145070895020       -0.11648946355845
C            0.14422166981737        4.00257018049333       -0.07154850061029
C            0.88314716037492        2.92726075905791        0.46657995963963
C            2.30225478846057        2.95858871492510        0.45777851669842
N            3.02484619724339        1.91360229152731        0.87595799677652
C            4.33425551719866        1.99585863252448        0.86015167229766
C            5.13248726803025        0.89769718857449        1.35742622132987
C            6.52802182870411        0.95706741686489        1.29581436762735
C            7.29196194215170       -0.07225230270182        1.80337738243471
C            6.68408080209496       -1.17492441137340        2.38323844278150
C            5.29968421813481       -1.24501311779284        2.44594715608899
C            4.52796738609969       -0.22291444179365        1.93826196255628
N            4.98674433077152        3.11716322926246        0.42171872372410
C            4.23529764438738        4.14111659166695        0.04285300952056
C            4.93846817466646        5.40015557313295       -0.39208640657518
C            3.97885541995714        6.58323934755648       -0.52742040340133
C            3.44727908651410        7.03157028784532        0.83081038410743
C            4.59700928126376        7.36983809123628        1.77385547147050
C            5.52088944271425        6.16649706735211        1.93231262740479
C            6.07524727877027        5.73598138566450        0.57821306540741
N            2.93369933105505        4.10213090957071        0.02301352107095
C            0.17227156716448        1.84092549450092        1.01692167843894
C           -1.19768843587873        1.79720555577232        0.95552423691476
C           -4.05868688757787        2.78929875179723        1.45796991294702
C           -3.44633997618286        3.18032614694468        2.65395372142199
C           -4.16247936595082        3.21797354287198        3.83097873224862
C           -5.50490263363413        2.87386507037961        3.84296051704483
C           -6.12332971161786        2.50526284317918        2.66194461251472
C           -5.42121208321800        2.46701929397393        1.46782170344402
C           -3.57425709844444       -2.95844415010338        1.01845230985502
C           -4.08794085909403       -3.10591145114828        2.29809772692750
C           -3.25943808512156       -3.14525787643249        3.40382758261573
C           -1.88967894689259       -3.03833963636797        3.22719655684086
C           -1.36012414308375       -2.89189575784301        1.96218874458851
C           -2.19206980530691       -2.84264255903465        0.83865181251563
C            0.34182652905764       -1.31024925053587       -0.31287486856578
C            1.71287159799112       -1.15788293161886       -0.36349048496391
H            9.68368124940122       -3.70008372785942        1.30382303722911
H            9.68879222131762       -4.62828892067899       -0.20607768493788
H           10.35147411972886       -5.32821522754370        1.26670641839639
H            7.18530197637377       -5.85088484412944        3.08100842402220
H            8.94191066935553       -5.96056348638293        3.15196610852266
H            8.15135054866047       -4.38322724323967        3.20309375802488
H            8.94489478162768       -7.30202265754349        0.96937295950180
H            7.18799932993739       -7.18850595154447        0.89899963355683
H            8.15762974113344       -6.63224690861140       -0.46293964210221
H            5.56527181599052       -5.75832983055212        1.55562858694620
H            3.62796491395801       -4.51348656812084        0.79447287277213
H            8.21233848235625       -2.89509699376294       -0.22024597522123
H            7.97720557914485       -0.63199883562806       -1.51607368356089
H            7.82896568703794        3.88769743815600       -2.66923400547325
H            6.85463971687242        3.19134538395997       -1.36528826500241
H            6.14300256251763        3.47725967858758       -2.95279982621710
H            9.30572525013213        0.58441079252236       -2.73665844548535
H            9.55285648261983        2.32338021658166       -2.74910520457718
H            8.95114875063077        1.54089649996096       -1.28751458310765
H            7.78147491005501        0.66178455817168       -4.70916009000494
H            8.12764520174079        2.39050877110517       -4.83148294496352
H            6.45692238075130        1.82106073982498       -4.78373717368422
H            4.77696926050827        1.80915440220498       -2.98344468618618
H            3.12888934641036        0.24766571511858       -2.13834435576629
H            2.55181415466086       -4.31170505843097       -1.26197094033336
H            0.10602855238235       -4.59115977625627       -1.09305939561990
H           -0.77759383219401       -2.45552339302512       -2.90458131276308
H           -2.14443910130807       -2.46302917755904       -4.93223807050732
H           -4.60585316305434       -2.69573098786082       -4.77119468606927
H           -5.66096421144468       -2.89850787306183       -2.55552602425196
H           -4.19324980408999       -5.75807903819076       -0.28154176653423
H           -6.06531317972057       -7.37722337126423       -0.24490735128232
H           -8.38403214316928       -6.59811801513545       -0.07698063599429
H           -8.89459566499937       -4.18635058497606        0.06237268071562
H           -8.89073555466093       -1.58501826214972        0.12507800961544
H           -4.12094491324579       -0.06836555292805        0.04984115828467
H           -7.47823734571699        4.55049429798795        0.17921336856070
H           -9.94295703102219        4.78196535719562        0.17081200233050
H          -11.38125442558291        2.79579449199097        0.17434257134541
H          -10.39898006539349        0.53053953899568        0.17811734043691
H           -7.03715294552655        2.29997884511454       -2.30278893469627
H           -5.76880805153681        2.71392203534736       -4.37543805699512
H           -3.30945082102795        2.98582256527700       -4.26113343851817
H           -2.16909742690211        2.96605577212770       -2.10464420797878
H           -1.78746397935942        4.79352375073541       -0.51690102951344
H            0.68484571107428        4.85850643012030       -0.44466869704618
H            6.98986710454625        1.82344669552065        0.84868011305764
H            8.37021189796605       -0.01695983418679        1.75297205689727
H            7.28284310649886       -1.97837581035432        2.78498150051841
H            4.82703877448190       -2.10630399791073        2.89607632790595
H            3.45098703082303       -0.26427547554522        1.99552465541555
H            5.37441210429680        5.18281583932507       -1.37455031599459
H            4.51486108489320        7.41139031946602       -0.99799409707909
H            3.14684856504081        6.30201328879308       -1.17474046950807
H            2.80066243378772        7.90260700912121        0.70144166392657
H            2.84628810780359        6.22877617238344        1.26109096386111
H            4.20378162897187        7.66908199800115        2.74790771602073
H            5.16557619532853        8.21156141039825        1.36942226098020
H            4.96462940030191        5.33613626106958        2.37341160247883
H            6.34484206469963        6.41227685440876        2.60615772418104
H            6.71406040641014        4.86013037309149        0.69977299682748
H            6.67501601146691        6.54521218370072        0.15490059611343
H            0.73102257316391        1.05035066305472        1.49253338881838
H           -1.74306724806068        0.96070479540177        1.37388050716657
H           -2.40498730450616        3.46231890124782        2.64830458587913
H           -3.67060804890783        3.52127402956345        4.74288485436140
H           -6.06718922518562        2.89596565026992        4.76361217456912
H           -7.17011389828776        2.23951303613911        2.66366302915506
H           -5.15804695202102       -3.19015701878365        2.42113524353822
H           -3.67752455435582       -3.25932807838766        4.39184584527331
H           -1.22707578257866       -3.07089785053362        4.07904886480135
H           -0.29108660309327       -2.81615678997195        1.83712007108666
H           -0.28792505641461       -0.46855450684776       -0.07182690885278
H            2.15910781102688       -0.20324132883744       -0.12975970739429
