171
 energy: -250.370942312612 gnorm: 0.000065937661 xtb: 6.7.1 (edcfbbe)
C          -11.42766143742185       -6.90076213066658        0.39244962478343
C           -9.95323347014097       -6.64877557503966        0.71981585031178
C           -9.10553758738229       -7.57740347316279       -0.16107804881444
C           -9.72998260460029       -6.98859896566424        2.20022873994078
C           -9.53723488516146       -5.20646560982955        0.46964052731432
C           -8.21134155138477       -4.83100908799424        0.72374481110966
C           -7.74211483986621       -3.54894878851177        0.52175704783552
C           -8.62844772636504       -2.60003589598644        0.03683665994726
C           -9.97491399830532       -2.94510063642250       -0.20145533278565
C          -10.42013515107388       -4.24312233460665        0.01090570903567
C          -10.63388699130107       -1.74444392421395       -0.63641072148962
C          -11.93817500110011       -1.46952289682221       -1.02619525385149
C          -12.28111658578818       -0.18813314863341       -1.42429079903838
C          -13.69154033704246        0.18901744064073       -1.85374126905355
C          -13.66168131082360        0.68343189743680       -3.30685424648871
C          -14.66581885010205       -0.98944753533621       -1.77302578102398
C          -14.21616012017595        1.30241466628964       -0.93598120936672
C          -11.28373626243037        0.79604706793773       -1.44095212089576
C           -9.98052906844162        0.55071794094786       -1.05917128225331
C           -9.65682756274779       -0.72795055124728       -0.63303673221193
N           -8.44453526147368       -1.25491269914146       -0.22594698679192
C           -7.25139686401604       -0.54246672160887       -0.08758855045982
C           -7.23922345376715        0.67475940546359        0.59082560977810
C           -6.06597359081599        1.39110222452567        0.70960757356375
C           -4.88343856989867        0.89930319216516        0.16806422124666
N           -3.69502285266137        1.66054116166470        0.30733509823470
C           -3.11733369785746        2.27345584752593       -0.79778471145787
C           -3.57481350662330        2.01266506129883       -2.09027869825740
C           -2.96702986966458        2.59544124393418       -3.18470291058732
C           -1.89228579007746        3.44956767259185       -3.01511259362240
C           -1.46104927657812        3.74734141469933       -1.73496488354721
C           -2.06563947762317        3.18089680850389       -0.62493885160043
C           -1.68166267579097        3.63831817520771        0.76280366819476
C           -2.42153143888208        4.93014995264968        1.07544205673377
C           -3.77977789233401        5.15005598030458        1.12910560989260
C           -4.23428097745510        6.42517207905682        1.43745320889184
C           -3.34106062900628        7.45611113351979        1.68473647032540
C           -1.97378280847123        7.24010527935269        1.62705674036704
C           -1.51557303282290        5.96989177793390        1.31973680508280
C           -0.16450162989807        5.44994557944038        1.18376005224658
C            1.05842917227900        6.08667450459384        1.32343890186500
C            2.19792318752935        5.32191722826542        1.13056326959101
C            2.11322533627655        3.95672713534783        0.80927945503213
C            0.89365992190344        3.32199851749333        0.66715576328042
C           -0.24268061191710        4.08553209841869        0.85721161459900
C            3.48981986312847        3.35588798107628        0.65479327269660
C            4.37880321371044        4.55819805288466        0.93584711021818
C            5.75413046934292        4.62423590399786        0.95123517363244
C            6.35696683014679        5.84267853051993        1.23370444309973
C            5.59214864744086        6.96859554494040        1.49660145210454
C            4.20818254052674        6.90487789157552        1.48752895629593
C            3.60210742788541        5.69189370539568        1.20619545745661
C            3.74939950303510        2.85733215208336       -0.74551447725313
C            3.14110727538446        3.46280055897989       -1.83325716195124
C            3.42618394582655        3.06147945279058       -3.12574992183744
C            4.33158728691473        2.03584527367735       -3.33445287428327
C            4.94063411568012        1.41624689479400       -2.26176047544726
C            4.66635517279249        1.82426762211817       -0.95512384680877
N            5.26222080814989        1.17520586365907        0.12150700432853
C            6.37121872182814        0.33512456119725       -0.13252562661067
C            7.57194187482715        0.91337796146342       -0.53941185198349
C            8.67495980014866        0.12444168106596       -0.78458120877591
C            8.59612305289047       -1.25862931747928       -0.62756681504676
C            9.77224341336830       -2.09133498227504       -0.87209869704094
N            9.67546497471771       -3.39693864115745       -0.63872340791139
C           10.77158086351249       -4.10975727251886       -0.87542432954074
C           10.73035835776941       -5.55029225946240       -0.62649612030484
C           11.87237683561371       -6.32466397515300       -0.82317821003585
C           11.83390937092853       -7.68460491902446       -0.58466256737377
C           10.66058162014602       -8.28171095059761       -0.15019035180606
C            9.52233413392965       -7.51529586146861        0.04726049236086
C            9.55369789748133       -6.15469441450970       -0.18841062655673
N           11.91390912934284       -3.58999098669189       -1.32155371101165
C           11.92465553175561       -2.28082175483441       -1.51656969067175
C           13.17627676214906       -1.63487398581613       -2.03794861235300
C           13.47206164498508       -0.33862886218490       -1.27522384929751
C           13.89670113127898       -0.64137740118069        0.15815061458398
C           15.12096597035783       -1.55100599847772        0.17193655820759
C           14.81999071813379       -2.85319744334839       -0.56277723941083
C           14.38150629367884       -2.57467968851157       -1.99768112623406
N           10.87755403087879       -1.49276936402549       -1.30840789698361
C            7.38898430951259       -1.83794001765704       -0.24058619413759
C            6.28311621158920       -1.04895456702968        0.00010808805402
C            4.72835576118697        1.28860097761185        1.40173662903112
C            5.13239885518701        0.44318603219579        2.43608096093563
C            4.56198514137762        0.53851344917368        3.69008567892674
C            3.58034051467057        1.47968874016864        3.94244011850855
C            3.21389803899219        2.35760440227491        2.93868363641483
C            3.78342269025069        2.28405306581585        1.67789157215819
C           -2.03364735646161        2.59664150355647        1.79729476476065
C           -1.39673819819710        2.58273154180284        3.02734788733641
C           -1.76689779959287        1.68608464364587        4.01360624719717
C           -2.79223343486290        0.79017090210099        3.76703986775575
C           -3.43260160657078        0.78473834068465        2.54405638639096
C           -3.06571944368620        1.68833281462381        1.54535337360652
C           -4.88814407359614       -0.32844750400715       -0.48572771508823
C           -6.06435640459730       -1.03896593364378       -0.62278926551606
H          -11.63687273457535       -6.69322621548669       -0.65444142129032
H          -12.07678381753771       -6.28929075225311        1.01495467271073
H          -11.66776465166591       -7.94510974421340        0.58229734600965
H           -8.04803505588133       -7.49002730938187        0.07194953428527
H           -9.40274727543929       -8.61306468532184       -0.00928877478675
H           -9.24471749661415       -7.32849614005292       -1.21117687319222
H          -10.04370875581717       -8.01076102199080        2.40203798993939
H           -8.68356004997102       -6.89374888042097        2.47632582851762
H          -10.31044467625951       -6.31806535093174        2.83065262375920
H           -7.51592846771704       -5.56641270694091        1.09882813126383
H           -6.71703141264706       -3.29858142321057        0.75066725405281
H          -11.45491488607595       -4.47063916467432       -0.18329153816777
H          -12.65899450844674       -2.26985749646299       -1.01362891629193
H          -14.66692000934707        0.93618612004536       -3.63789359015291
H          -13.26793986723097       -0.09317600195557       -3.95940319800048
H          -13.03706752702216        1.56588631327687       -3.41353620052995
H          -14.73794844483515       -1.36812873794822       -0.75604861634730
H          -15.65704818464579       -0.66198520214770       -2.08058247215903
H          -14.35944585338041       -1.79661362848783       -2.43436121556651
H          -14.22333376857217        0.96395878326657        0.09815357622609
H          -15.23159171158783        1.57353923657180       -1.21768589512778
H          -13.59743028662574        2.19322807906555       -0.99799725420582
H          -11.53100591443077        1.79439961007187       -1.76840156223921
H           -9.23897135658599        1.33417274650892       -1.10643773101341
H           -8.15114256713778        1.04702188640563        1.03199967965828
H           -6.05577808632815        2.33225402859577        1.23938052594319
H           -4.41814719236030        1.35650502303560       -2.24014997468326
H           -3.33876883918781        2.37728936724522       -4.17494253636350
H           -1.40868068010307        3.89927649884847       -3.86844878738746
H           -0.65009114649286        4.44583173994210       -1.59040733414355
H           -4.47936908232143        4.35152367813366        0.93131065218041
H           -5.29640966762342        6.61672360640345        1.48429865645562
H           -3.71714818509688        8.44043702492282        1.92331330457235
H           -1.28146510097150        8.04684710591641        1.81731654565368
H            1.12084363592226        7.13504971134061        1.57232554187736
H            0.83120830328855        2.27270782390501        0.41797445107730
H            6.35506644504890        3.74879484311352        0.75423848014977
H            7.43472618290918        5.91375133295322        1.24990969563478
H            6.08263332867702        7.90649816300512        1.71339694818472
H            3.61615593750334        7.78362934046659        1.69637682665996
H            2.44142759853360        4.26744234460714       -1.66213424554764
H            2.94700924277664        3.54753051134084       -3.96151222683859
H            4.56232984943578        1.70832261098756       -4.33723532922703
H            5.63163464337805        0.60484732366684       -2.43426303135856
H            7.62635597180167        1.98523913440447       -0.66337054457925
H            9.61239801460558        0.55956534484422       -1.09251180761574
H           12.77610674431997       -5.84174168004532       -1.16076171806491
H           12.71970088263037       -8.28377640806346       -0.73677799841238
H           10.63326002225276       -9.34562252362030        0.03524627645225
H            8.60958868226064       -7.98310595538320        0.38631170549645
H            8.67864337754336       -5.54194232855747       -0.03939390769858
H           12.95953311566867       -1.37578005725552       -3.08306215228285
H           14.27475702689136        0.19691515274111       -1.78695025400549
H           12.58072568996941        0.28939302864132       -1.27754908667413
H           14.11701004161156        0.29194632886828        0.68120942984801
H           13.07309898330761       -1.13169047779557        0.68303852883140
H           15.41575761999715       -1.76407287587461        1.20176087527281
H           15.95529800859471       -1.04093406234259       -0.31647869876083
H           14.02316362776551       -3.38875540146528       -0.04403490191935
H           15.70581374177156       -3.49216415215085       -0.56849012156198
H           14.12688591590653       -3.51146107279869       -2.49446871839809
H           15.20441265068512       -2.10779883324174       -2.54416548158610
H            7.33530795940950       -2.91059351596697       -0.14179499986814
H            5.34069985009453       -1.49705695573427        0.27916916997810
H            5.90864555092333       -0.28594533864141        2.26536903069111
H            4.89086766102847       -0.12928358528001        4.47245567413646
H            3.12390250269756        1.54948989976258        4.91764068183955
H            2.48431098704406        3.12817738387895        3.13919276228999
H           -0.60627909278642        3.29384428354622        3.21690611128014
H           -1.26266126909576        1.69234585551390        4.96759792319183
H           -3.09471247689186        0.08557720692299        4.52751840776380
H           -4.22250134140161        0.07311220463844        2.35589786556688
H           -3.96616153468707       -0.71859911851093       -0.89107981697016
H           -6.07254562606783       -1.97721333084036       -1.15640675594918
