171
 energy: -250.323539153502 gnorm: 0.000145160463 xtb: 6.7.1 (edcfbbe)
C            9.70428969342543       -4.36314451239856        0.36919878169129
C            8.39940959530286       -5.05215537252336        0.77754843070983
C            8.42978521165433       -5.25959414258818        2.29806849302424
C            8.33773752947000       -6.41423955107086        0.07091219996727
C            7.16817680187118       -4.24380974080402        0.39477629009592
C            5.90063889164329       -4.74875275305551        0.70992735546678
C            4.72920194258869       -4.09959702218807        0.37576141404888
C            4.82048576491353       -2.89936815097715       -0.31173498474198
C            6.08542566461296       -2.35009256368666       -0.60232322386673
C            7.24745082721964       -3.02317338230251       -0.25674086917606
C            5.84460885486730       -1.08393306282088       -1.23782466610334
C            6.68556312827682       -0.10764489863797       -1.74236168152626
C            6.15296763795651        1.03026400838957       -2.33437538745043
C            7.09871970369153        2.10253384864941       -2.85344159605520
C            6.36605865847856        3.25507163455055       -3.54542149036922
C            7.88231511457143        2.66151217206431       -1.65676943471044
C            8.06832179063725        1.48901450516727       -3.87395307612950
C            4.76392542754741        1.14948597059049       -2.41607761239263
C            3.90157340960588        0.18996770225704       -1.91784452383007
C            4.44456085441353       -0.92533814317098       -1.30280992806209
N            3.83144415989951       -2.03562267762077       -0.74645549173449
C            2.45737450835827       -2.23787963057235       -0.64118548601258
C            1.89842536379100       -3.47912445768466       -0.94840868159953
C            0.53645188789684       -3.68013721098803       -0.83556946085667
C           -0.28903750419496       -2.63474012494855       -0.43960387401821
N           -1.69380760608294       -2.81731213978420       -0.31125232829140
C           -2.48311195561717       -2.84816701182385       -1.44869896039182
C           -1.89708604394584       -2.78158168470205       -2.71693993916357
C           -2.67186742730439       -2.82478146321622       -3.85673378445011
C           -4.04958582277066       -2.92890007802499       -3.76095245519042
C           -4.63815761862367       -2.97240497845346       -2.51124643193945
C           -3.87602449770938       -2.93065403646900       -1.35339832327135
C           -4.58289338754821       -2.92900628899190       -0.01791953737733
C           -5.58922958189217       -4.05980847300951        0.05455574282741
C           -5.34800400789589       -5.41539644847924        0.05483829644274
C           -6.43206855654804       -6.28107766647449        0.11556349362102
C           -7.72822520802792       -5.79196651400190        0.17106495531485
C           -7.97517165793094       -4.42834608546175        0.16939249775719
C           -6.89793754069990       -3.55986027451530        0.11164286914101
C           -6.84104044638147       -2.10549280318593        0.10261413592457
C           -7.85726812471560       -1.16250039643885        0.10825315643923
C           -7.48587263795886        0.17302276317197        0.08133479330996
C           -6.13361876230702        0.54751242383163        0.08206361263333
C           -5.11910334504439       -0.38850105880545        0.06460385928969
C           -5.49263818473095       -1.71724941998794        0.06156879884723
C           -5.99545606939069        2.06245756258542        0.04360996770832
C           -7.44243387804280        2.49142888179095       -0.03604961428900
C           -7.94860412765509        3.76973366346505       -0.12349384062594
C           -9.32670481516067        3.93550918720259       -0.16519703741893
C          -10.17490399368745        2.83972460785069       -0.11444452562940
C           -9.66993526522949        1.55219347818283       -0.02493227418945
C           -8.29617941490580        1.37980751741796        0.01347216872589
C           -5.18748356754960        2.41837084258259       -1.17779330485525
C           -5.78016900591186        2.36423121293513       -2.42882997324022
C           -5.03166529532272        2.51518314536591       -3.58194919733970
C           -3.65969170663770        2.67937213963218       -3.48187991960034
C           -3.05278372982146        2.74487381971045       -2.24551647050934
C           -3.80847516175154        2.65292935415406       -1.07136728657907
N           -3.21387768588302        2.78089162010045        0.17245837047067
C           -1.80026936451977        2.83345450737606        0.29621231242284
C           -1.05746373455724        3.90343619906825       -0.21104092699244
C            0.31123875388332        3.90245001014883       -0.11598119437030
C            0.99243360026712        2.83098255366507        0.49982017961599
C            2.41087794887427        2.80414631733477        0.54770276184834
N            3.06285370358106        1.72970360374931        1.00564717442678
C            4.37360066365505        1.74407172680204        1.04664043405092
C            5.08515392497497        0.59642756778100        1.56460208696683
C            6.48312632980644        0.56878691524040        1.55812425776081
C            7.15938667989150       -0.51502789691506        2.07626123864506
C            6.46099910714686       -1.58681094665083        2.61111765986922
C            5.07412313759178       -1.56988449315929        2.61839954011063
C            4.38890688659769       -0.49151257385672        2.10242020864902
N            5.10093828019509        2.83274990148969        0.64734727318129
C            4.41501287458977        3.89136061513558        0.23669055795700
C            5.20640667879927        5.12181926156586       -0.12230780059931
C            4.31803858112010        6.30898246848991       -0.49477155163664
C            3.55936120028446        6.85131426369430        0.71330713465820
C            4.52251061364690        7.21822342328539        1.83701982080517
C            5.35719867460818        6.00406488528362        2.23172895869812
C            6.14579701177792        5.48810688502073        1.03289057422998
N            3.11686924694226        3.91233721854266        0.13775270954236
C            0.22412896654694        1.79818811460013        1.07653407171275
C           -1.14275580664029        1.79789989404937        0.96851357187947
C           -3.97801968395727        2.87239119625864        1.32339349228183
C           -3.39758967617573        3.31789337553233        2.51643818189248
C           -4.14505246497688        3.41065181996282        3.67055839012210
C           -5.48793854227939        3.06792633470312        3.66193175533405
C           -6.07492714106300        2.64703848133683        2.48249207898444
C           -5.34109209074236        2.55376562874065        1.31043416437760
C           -3.62540683361539       -2.95995237117782        1.14447674576799
C           -4.14183291890585       -3.04030110820077        2.42908894421165
C           -3.31346876890557       -3.06311187356991        3.53527925982645
C           -1.94105728377613       -3.01285373756463        3.35382587528152
C           -1.40916713324800       -2.93300476551276        2.08388717208792
C           -2.24078917780549       -2.89328395146246        0.95969998282920
C            0.26239189433819       -1.39157065133539       -0.15532197965437
C            1.62465396148368       -1.19358312632462       -0.24028224708208
H            9.80588857582757       -3.39792827168804        0.85977026351625
H            9.75202155237680       -4.22304882093261       -0.70819913765957
H           10.54942813626709       -4.98150574619749        0.66562953943488
H            7.53815074179612       -5.77116867039135        2.64944254303248
H            9.29639809860513       -5.85566302615986        2.57718938951641
H            8.49636861051250       -4.30009908509040        2.80638774773186
H            9.22437626196294       -6.99988758923126        0.30526798992834
H            7.46409821610507       -6.98152809839188        0.37966456253901
H            8.29037085030066       -6.27560872428506       -1.00728307142418
H            5.82097999467543       -5.68580236617279        1.24018190087084
H            3.77550480275468       -4.51672126787499        0.66232041848519
H            8.19472682475129       -2.57242290529115       -0.49990478692586
H            7.75230014517594       -0.24799600050988       -1.66513295569331
H            7.08925741939253        3.99395850305762       -3.88625494552102
H            5.67474364949548        3.74849417987402       -2.86700917097039
H            5.81445890989949        2.89909572275421       -4.41301983273322
H            8.54351053884578        1.90661645654295       -1.23913317619565
H            8.48655795697856        3.51447286935778       -1.96019463696786
H            7.19189480544046        2.97602514771670       -0.87693095752281
H            8.67092247837769        0.70171063418270       -3.43048833860821
H            8.74002216131864        2.25462014166228       -4.25717934509026
H            7.51559642032396        1.06468264992121       -4.70976678251168
H            4.32259118006513        2.01538592901051       -2.88160181289750
H            2.83507620479566        0.31990408082270       -2.02160770169086
H            2.53468529935807       -4.28035090775222       -1.29141074356256
H            0.10576539397564       -4.64356291329460       -1.06577511771901
H           -0.82570707572213       -2.68891494222013       -2.80437471691234
H           -2.19542892299112       -2.77408198276930       -4.82432060881591
H           -4.66002006869050       -2.96547490207419       -4.64975430741821
H           -5.71307064292753       -3.03602446340907       -2.42525859117900
H           -4.33793195136895       -5.79625877583084        0.01103503010505
H           -6.26379900789561       -7.34788121614205        0.11929452137168
H           -8.55640877795545       -6.48409944681657        0.21678617969769
H           -8.98673789104308       -4.05276334997419        0.21355300834103
H           -8.89592060161643       -1.45623994356650        0.11829264997566
H           -4.07871643853843       -0.09843296376975        0.03682565305239
H           -7.28729298694789        4.62315650417431       -0.16001135495472
H           -9.74264249445063        4.92957427817671       -0.23677882236281
H          -11.24383668427218        2.99266662532256       -0.14596161049895
H          -10.33513288754233        0.70241174879960        0.01375515265588
H           -6.84341707110112        2.18537165822498       -2.49506085614827
H           -5.51026131616162        2.47630131680005       -4.54813121373237
H           -3.05538356445033        2.75652286387989       -4.37325552560301
H           -1.98253782654249        2.85951478751837       -2.18418585333032
H           -1.57478057802966        4.73243487293946       -0.67312662560960
H            0.89326250217758        4.72051621655059       -0.51131403448761
H            7.01522042705828        1.40975308158140        1.14254846951693
H            8.24008978141225       -0.52736439314462        2.06930699107962
H            6.99067491982034       -2.43340366908748        3.02052911814492
H            4.52958376488100       -2.40554753533941        3.03442284446703
H            3.31016350271297       -0.46574881631371        2.11828844423604
H            5.82350982890546        4.85334431133951       -0.98779210617782
H            4.95292574768224        7.09772517539346       -0.90689937870648
H            3.60950883204352        6.00330877203962       -1.26663309574951
H            2.97911449319865        7.72803601731562        0.41608415129292
H            2.86236894600743        6.08962710580401        1.06599786691134
H            3.96356521850738        7.58394906702247        2.70113999979137
H            5.18641886937117        8.02039819083172        1.50361910626622
H            4.69811183362640        5.21342612792714        2.59802506582291
H            6.04507579375505        6.26702115071741        3.03864701223653
H            6.72429257501291        4.60708234990975        1.31609578532786
H            6.83896834095262        6.26145861276509        0.69298562564082
H            0.73639203214198        1.01569100332020        1.61373083145673
H           -1.73284521027036        1.00559336335475        1.41164162880408
H           -2.35568293769943        3.59786208037120        2.52570824364571
H           -3.67753719111278        3.75551446587787        4.58050216430135
H           -6.07487189448375        3.13221074015157        4.56504519789221
H           -7.12206820177998        2.38309036165850        2.46799815948194
H           -5.21396774087809       -3.08488159288002        2.55522614617441
H           -3.73349158943958       -3.12349882680131        4.52720908871425
H           -1.27829397956161       -3.03874741749842        4.20577681290172
H           -0.33821003025236       -2.90450330614540        1.95540941706324
H           -0.38475796537537       -0.58181727559619        0.14190638851451
H            2.05040624417046       -0.23693086309788        0.02090904832669
