  49
  -77.1699092900000       0.228965083135883      !
 C         -5.6795985107        3.2955462004        0.6543261216
 C         -4.4748129310        3.2722638858        1.3390267962
 C         -3.5856701207        2.2347205289        1.1444465696
 C         -3.8871899301        1.1970192901        0.2606365663
 C         -2.9240265023        0.1235228801        0.0920745257
 N         -1.6172315128        0.3252395608        0.3661834733
 C         -0.9676278928       -0.8000974635        0.1487639100
 C          0.4503867740       -1.0164364920        0.3862934434
 C          0.8560556278       -2.1793163245        1.0438331048
 C          2.1855269667       -2.4337524144        1.2991512582
 C          3.1736905291       -1.5303239269        0.9037207463
 C          4.5564341549       -1.7706932154        1.1468248264
 C          5.5009889007       -0.8801160197        0.7654573291
 C          5.1458920070        0.3330712143        0.1064906218
 C          6.1045348575        1.2634976064       -0.2982249566
 C          5.7298802462        2.4325267536       -0.9347119207
 C          4.3964289660        2.7019635096       -1.1811574895
 C          3.4035011080        1.7997823330       -0.7947401560
 C          2.0199150894        2.0415636547       -1.0331319747
 C          1.0715132968        1.1525910230       -0.6557368748
 C          1.4158772407       -0.0648343075        0.0001924358
 C          2.7850924690       -0.3329774994        0.2529498459
 C          3.7763722990        0.5985977789       -0.1438232362
 N         -1.8285603798       -1.7744899582       -0.2801557971
 C         -1.6095272198       -3.0479373981       -0.7124081525
 C         -2.6555792603       -3.8205671464       -1.0918952676
 C         -3.9780468408       -3.3121515986       -1.0385664675
 C         -4.1946159740       -2.0193055161       -0.6658215422
 C         -3.1047242184       -1.2036701670       -0.3149089012
 C         -5.0895592002        1.2427319019       -0.4432295394
 C         -5.9780222325        2.2823768546       -0.2413293479
 H         -6.3787397068        4.1040319409        0.8105847423
 H         -4.2313803200        4.0670557991        2.0292052152
 H         -2.6431422706        2.2039765633        1.6685433521
 H          0.1089854948       -2.8775111030        1.3954404567
 H          2.4717875388       -3.3372467798        1.8185012452
 H          4.8317540006       -2.6886369185        1.6470877126
 H          6.5482413252       -1.0702178077        0.9534991761
 H          7.1487473645        1.0599464940       -0.1081985613
 H          6.4857498755        3.1409913414       -1.2414168031
 H          4.1104437206        3.6180447970       -1.6777401972
 H          1.7424361096        2.9614104373       -1.5282038055
 H          0.0268801629        1.3576461083       -0.8266005605
 H         -0.5839016012       -3.3808551887       -0.7447232532
 H         -2.4806793174       -4.8280091603       -1.4323694488
 H         -4.8014557955       -3.9542475134       -1.3071507223
 H         -5.1897522550       -1.6083627750       -0.6223716324
 H         -5.3186404808        0.4808962277       -1.1723147971
 H         -6.9077429977        2.3060652660       -0.7917317881
  49
  -77.1698600100000       0.217331029933588      !
 C         -5.7572207219        3.2464719719        0.6530727718
 C         -5.9895065372        2.2696786040       -0.3008570929
 C         -5.0723824593        1.2547043089       -0.4993854044
 C         -3.9075812312        1.1984645030        0.2645760418
 C         -2.9249516684        0.1418193592        0.0991048736
 N         -1.6235876356        0.3488444451        0.3940064986
 C         -0.9652906545       -0.7708893770        0.1720817050
 C          0.4516952776       -0.9897551866        0.4159770753
 C          0.8492431796       -2.1543567873        1.0753755971
 C          2.1775389489       -2.4216572025        1.3235621056
 C          3.1725205567       -1.5312439796        0.9158502868
 C          4.5547580364       -1.7882711135        1.1447331229
 C          5.5062236309       -0.9112167470        0.7494928774
 C          5.1590462311        0.3046007682        0.0909567049
 C          6.1247610012        1.2213500439       -0.3277469591
 C          5.7576933812        2.3930606736       -0.9638782605
 C          4.4250265935        2.6786066500       -1.1965238569
 C          3.4251302655        1.7903032335       -0.7962581003
 C          2.0420765088        2.0487104125       -1.0205161138
 C          1.0868873099        1.1719637068       -0.6316112343
 C          1.4237625624       -0.0482254592        0.0231392665
 C          2.7919243422       -0.3311765720        0.2652447943
 C          3.7902525062        0.5868065217       -0.1450462145
 N         -1.8148751979       -1.7455326224       -0.2780589096
 C         -1.5844217972       -3.0142940995       -0.7182973007
 C         -2.6219928739       -3.7870129382       -1.1202635932
 C         -3.9474878785       -3.2845755033       -1.0817682395
 C         -4.1749224193       -1.9966364144       -0.6991613823
 C         -3.0927370324       -1.1810309642       -0.3251605757
 C         -3.6707402580        2.2009771260        1.2060691524
 C         -4.5894206067        3.2132758775        1.3987033998
 H         -6.4791596141        4.0348948538        0.8077520021
 H         -6.8894939081        2.3023972790       -0.8983728402
 H         -5.2475388286        0.5203011703       -1.2708772102
 H          0.0966657872       -2.8442517094        1.4319077414
 H          2.4577663715       -3.3260547008        1.8445560958
 H          4.8239879237       -2.7082268822        1.6444945227
 H          6.5530947903       -1.1142835123        0.9259432517
 H          7.1683616424        1.0048588807       -0.1490950593
 H          6.5190250633        3.0907508049       -1.2815438241
 H          4.1452781801        3.5964979730       -1.6933880535
 H          1.7709210793        2.9709391684       -1.5147458970
 H          0.0426613124        1.3884321845       -0.7920754836
 H         -0.5571753853       -3.3432400647       -0.7377011159
 H         -2.4381697152       -4.7907295946       -1.4670189813
 H         -4.7639158140       -3.9275839062       -1.3687160230
 H         -5.1714830221       -1.5880973879       -0.6655366153
 H         -2.7566439325        2.1631339527        1.7780438895
 H         -4.3982411255        3.9804274385        2.1351456162
  49
  -77.1691520400000       0.102745131763044      !
 C         -6.7231711063        2.0088114430        1.6594789382
 C         -5.6899811217        1.7520820395        2.5467583158
 C         -4.5172501675        1.1777149580        2.0995912397
 C         -4.3576121792        0.8455719668        0.7535932567
 C         -3.1110910563        0.2380853082        0.3235810084
 N         -1.9653756207        0.4456496497        1.0087793706
 C         -0.9937992266       -0.1887954995        0.3867358171
 C          0.3878492631       -0.2168881094        0.8436690496
 C          0.6160448363       -0.4958801407        2.1906245361
 C          1.8944139746       -0.6120779254        2.6889546564
 C          3.0027371784       -0.4559869046        1.8528471064
 C          4.3362859820       -0.6175805809        2.3271280745
 C          5.3994083134       -0.4505077503        1.5067031344
 C          5.2247005511       -0.0907416593        0.1383935793
 C          6.3066981756        0.0976372528       -0.7233387400
 C          6.1056258880        0.4586274455       -2.0429170704
 C          4.8263695796        0.6453719371       -2.5333278319
 C          3.7150173245        0.4640925739       -1.7086652244
 C          2.3833904312        0.6754169521       -2.1690167350
 C          1.3173674495        0.4714723064       -1.3605225782
 C          1.4771792422        0.0304096569       -0.0125824382
 C          2.7940038914       -0.1156590309        0.4932927472
 C          3.9087207648        0.0840743410       -0.3580180582
 N         -1.4758909025       -0.8662500979       -0.6993215411
 C         -0.8725140485       -1.7343598022       -1.5589688773
 C         -1.6039562781       -2.3418687272       -2.5238660928
 C         -2.9972666274       -2.1002852077       -2.6268417964
 C         -3.6091078326       -1.2546811786       -1.7501733187
 C         -2.8484093821       -0.6077934086       -0.7608885773
 C         -5.3928381093        1.1299634304       -0.1355480864
 C         -6.5661465116        1.7026857163        0.3182002089
 H         -7.6428955354        2.4539781602        2.0095560358
 H         -5.8034383654        1.9996881543        3.5925614126
 H         -3.7028024922        0.9772473173        2.7772748940
 H         -0.2386602756       -0.6342978814        2.8348265024
 H          2.0497045065       -0.8415721653        3.7331869184
 H          4.4760670276       -0.8811523091        3.3659983260
 H          6.4074983975       -0.5795708301        1.8744070685
 H          7.3098196317       -0.0411687891       -0.3461790264
 H          6.9552828569        0.5991906612       -2.6952392997
 H          4.6761852154        0.9354245567       -3.5633955720
 H          2.2432399332        1.0164391298       -3.1850963089
 H          0.3208990111        0.6729083250       -1.7252158998
 H          0.1826570778       -1.9060368349       -1.4150032771
 H         -1.1260711365       -3.0264420766       -3.2052770801
 H         -3.5647601742       -2.6067205369       -3.3910285216
 H         -4.6731672737       -1.0883505342       -1.7817802061
 H         -5.2686870150        0.9315891121       -1.1892658733
 H         -7.3616725605        1.9185753261       -0.3805162188
  49
  -77.1691432800000       0.101797107077603      !
 C         -6.7139445869        1.9671066201        1.7116639742
 C         -6.5555909410        1.7279435739        0.3567947055
 C         -5.3876414163        1.1651096486       -0.1225882988
 C         -4.3590237791        0.8232461358        0.7543804899
 C         -3.1148632557        0.2286124833        0.3002998283
 N         -1.9742937149        0.3916375171        1.0056028493
 C         -1.0005691806       -0.2148043874        0.3594652345
 C          0.3758774778       -0.2680623525        0.8286256475
 C          0.5868947440       -0.6009597132        2.1662678455
 C          1.8585673201       -0.7356949856        2.6765420550
 C          2.9776882243       -0.5448495161        1.8622312217
 C          4.3050346341       -0.7213451302        2.3483097674
 C          5.3788269496       -0.5200336167        1.5497789531
 C          5.2216516797       -0.1088203931        0.1939418231
 C          6.3148041342        0.1142095334       -0.6451395777
 C          6.1309764292        0.5243021562       -1.9528167618
 C          4.8581608330        0.7276701608       -2.4531226881
 C          3.7361720579        0.5141829127       -1.6508444102
 C          2.4106641614        0.7440240727       -2.1197804400
 C          1.3342301828        0.5093884598       -1.3336045177
 C          1.4761708089        0.0136367245       -0.0027709156
 C          2.7863932310       -0.1518677779        0.5143536895
 C          3.9121813480        0.0824778472       -0.3133355950
 N         -1.4766830237       -0.8304209586       -0.7653901727
 C         -0.8712856255       -1.6571464199       -1.6636139810
 C         -1.5970369681       -2.2056110143       -2.6674237904
 C         -2.9871213220       -1.9464920450       -2.7720587003
 C         -3.6018470600       -1.1448906116       -1.8568128520
 C         -2.8469831155       -0.5591967735       -0.8257910060
 C         -4.5205659719        1.0866746519        2.1155973718
 C         -5.6877702458        1.6517287622        2.5880308142
 H         -7.6290337377        2.4059841534        2.0812241856
 H         -7.3458639349        1.9889296732       -0.3321997310
 H         -5.2627790896        1.0186129207       -1.1848763945
 H         -0.2761906722       -0.7657790016        2.7929437103
 H          2.0003391052       -1.0063181922        3.7128315842
 H          4.4312785865       -1.0244565858        3.3780879561
 H          6.3821275760       -0.6610050406        1.9259648646
 H          7.3128054762       -0.0367680521       -0.2596337195
 H          6.9889492985        0.6905482217       -2.5876919236
 H          4.7212973342        1.0562449780       -3.4734660019
 H          2.2834880527        1.1250925609       -3.1232505657
 H          0.3430068117        0.7275402579       -1.7028039379
 H          0.1806824008       -1.8460693010       -1.5176764978
 H         -1.1171332509       -2.8567668234       -3.3794844708
 H         -3.5499295565       -2.4046485683       -3.5693291571
 H         -4.6640402489       -0.9670029961       -1.8913286894
 H         -3.7108970249        0.8422302336        2.7841531695
 H         -5.8019310586        1.8466429800        3.6450149269
  49
  -77.1691364200000       0.101060815510184      !
 C         -6.7155302738        2.0278771703        1.6409992610
 C         -6.7684103244        0.8411276742        0.9291957981
 C         -5.6052800843        0.2345751260        0.4931114175
 C         -4.3660227100        0.8154990163        0.7578074577
 C         -3.1173997857        0.2143759161        0.3239649421
 N         -1.9683494693        0.4514516895        0.9947064256
 C         -0.9970560505       -0.1983754197        0.3891197499
 C          0.3836837589       -0.2242172273        0.8512150309
 C          0.6101141888       -0.4908366254        2.2006482194
 C          1.8885835918       -0.5979380858        2.7015960784
 C          2.9975385917       -0.4427040869        1.8661684785
 C          4.3313768343       -0.5909374610        2.3445047729
 C          5.3950218642       -0.4223249684        1.5251336559
 C          5.2208161999       -0.0754908802        0.1533711545
 C          6.3032870939        0.1143653214       -0.7073947967
 C          6.1024448183        0.4615887793       -2.0307595383
 C          4.8228929974        0.6329437719       -2.5259722271
 C          3.7111136625        0.4504107356       -1.7021951850
 C          2.3789985013        0.6471517026       -2.1675979630
 C          1.3127975516        0.4444789664       -1.3591241458
 C          1.4729819703        0.0185516678       -0.0062462018
 C          2.7896511697       -0.1154931765        0.5032011278
 C          3.9047222641        0.0843954414       -0.3476404565
 N         -1.4768138346       -0.8930271345       -0.6862453156
 C         -0.8686069786       -1.7618612113       -1.5419851615
 C         -1.5834189502       -2.3279963362       -2.5435511407
 C         -2.9568175713       -2.0150630315       -2.7092312045
 C         -3.5784376065       -1.1845893254       -1.8252511669
 C         -2.8486937918       -0.6323996540       -0.7578052978
 C         -4.3221334621        2.0016168719        1.4921162685
 C         -5.4866115883        2.6013775928        1.9273381171
 H         -7.6273304495        2.4983123192        1.9785820943
 H         -7.7232707616        0.3806244248        0.7186960940
 H         -5.6589517461       -0.7094069902       -0.0270189026
 H         -0.2453654649       -0.6262724918        2.8447310023
 H          2.0431928269       -0.8189318302        3.7477696784
 H          4.4708495778       -0.8457570496        3.3854849633
 H          6.4031095915       -0.5416638810        1.8958043466
 H          7.3065116826       -0.0125405333       -0.3266275593
 H          6.9524920590        0.6046921337       -2.6820317656
 H          4.6728266283        0.9133549540       -3.5586878735
 H          2.2384801198        0.9767584885       -3.1873361373
 H          0.3158960906        0.6356511242       -1.7279277080
 H          0.1784027818       -1.9581840569       -1.3715389804
 H         -1.1033546573       -3.0146233246       -3.2213165311
 H         -3.4997186359       -2.4473554037       -3.5344131721
 H         -4.6203573407       -0.9313810318       -1.9315913603
 H         -3.3580294355        2.4335958253        1.7108808565
 H         -5.4393623729        3.5209090532        2.4927031790
  49
  -77.1691271400000       0.100073250342782      !
 C         -6.7359455318        1.9530402668        1.7057835850
 C         -5.5148363241        2.5383330060        2.0009613814
 C         -4.3430685453        1.9664433829        1.5476910827
 C         -4.3726278615        0.7978938808        0.7856528359
 C         -3.1190070865        0.2254362577        0.3276468973
 N         -1.9705010283        0.4371312290        1.0066667279
 C         -0.9969448453       -0.1812731463        0.3712479870
 C          0.3811891413       -0.2278985743        0.8378472504
 C          0.5960285532       -0.5322807698        2.1815636872
 C          1.8694668494       -0.6676094190        2.6877540861
 C          2.9856993994       -0.5068347531        1.8630220357
 C          4.3140421217       -0.6889719102        2.3445074774
 C          5.3849764940       -0.5179743813        1.5351421151
 C          5.2241354428       -0.1336544551        0.1718466055
 C          6.3144052062        0.0569535169       -0.6789122783
 C          6.1269422212        0.4412037057       -1.9938775858
 C          4.8534277046        0.6504529511       -2.4901664111
 C          3.7342447438        0.4683355459       -1.6764460216
 C          2.4084611474        0.7036676774       -2.1420722522
 C          1.3344052279        0.4970824165       -1.3449727118
 C          1.4792266753        0.0272467343       -0.0049107977
 C          2.7907108172       -0.1403808555        0.5082301226
 C          3.9138385911        0.0632227852       -0.3311123177
 N         -1.4756892373       -0.8285292843       -0.7342326920
 C         -0.8680400072       -1.6561192890       -1.6304329574
 C         -1.5830349492       -2.1738715467       -2.6578525238
 C         -2.9571408188       -1.8561168521       -2.8074996911
 C         -3.5794477565       -1.0719327277       -1.8827408154
 C         -2.8485090407       -0.5700846962       -0.7916868110
 C         -5.6038313449        0.2033129788        0.5134546820
 C         -6.7741073979        0.7814790711        0.9683510668
 H         -7.6534402695        2.4018821203        2.0570141972
 H         -5.4793839316        3.4460619909        2.5858843329
 H         -3.3848381583        2.4084193124        1.7722051269
 H         -0.2655546628       -0.6747676274        2.8158089808
 H          2.0144212795       -0.9171153087        3.7288777010
 H          4.4434147178       -0.9718460142        3.3796417579
 H          6.3889529067       -0.6634919712        1.9079822547
 H          7.3131283131       -0.0983121064       -0.2965607693
 H          6.9828112698        0.5837127925       -2.6375970620
 H          4.7140617674        0.9589962165       -3.5163485587
 H          2.2794955744        1.0653235230       -3.1525147906
 H          0.3431263003        0.7180544614       -1.7125795877
 H          0.1788315464       -1.8613529079       -1.4703936093
 H         -1.1022285462       -2.8262655132       -3.3681578972
 H         -3.4996400674       -2.2480448038       -3.6528702530
 H         -4.6221519516       -0.8155995051       -1.9736439142
 H         -5.6442457919       -0.7293917284       -0.0280985081
 H         -7.7228480212        0.3112077703        0.7523965673
  49
  -77.1690174500000       8.910621000746816E-002 !
 C         -6.6442194808        2.1757087726        1.5662996042
 C         -6.7371178720        0.9717694686        0.8882471133
 C         -5.5946624827        0.3049656658        0.4867726648
 C         -4.3360835902        0.8419303956        0.7525095692
 C         -3.1070499753        0.1875409579        0.3404756028
 N         -1.9532180723        0.3991374991        1.0128366110
 C         -0.9991727115       -0.2799723231        0.4136700026
 C          0.3862577225       -0.3282470032        0.8648071612
 C          0.6297068077       -0.6551089557        2.1970229613
 C          1.9153523747       -0.7648637891        2.6802032031
 C          3.0128526800       -0.5428677911        1.8451920739
 C          4.3541455129       -0.6751236154        2.3077934657
 C          5.4063044145       -0.4316732716        1.4925773430
 C          5.2121559067       -0.0227033590        0.1406424209
 C          6.2822270460        0.2510932437       -0.7128807254
 C          6.0615756775        0.6566681696       -2.0163592206
 C          4.7740029138        0.8009367795       -2.4990957680
 C          3.6741047292        0.5356239524       -1.6818956707
 C          2.3332669672        0.7001160045       -2.1346069312
 C          1.2794238157        0.4300990899       -1.3298166882
 C          1.4623870790       -0.0363727160        0.0066350742
 C          2.7860329048       -0.1590784299        0.5000873099
 C          3.8884218510        0.1142401276       -0.3467095564
 N         -1.4933818662       -0.9671214981       -0.6589003853
 C         -0.8998210126       -1.8444281029       -1.5161016652
 C         -1.6259050812       -2.3997655429       -2.5155364416
 C         -2.9949799933       -2.0656239180       -2.6774235290
 C         -3.6001080228       -1.2193363626       -1.7970482303
 C         -2.8587729196       -0.6746403709       -0.7336202401
 C         -4.2525237411        2.0447679065        1.4556095209
 C         -5.3964985948        2.7048252046        1.8563579530
 H         -7.5400331318        2.6943595626        1.8748074245
 H         -7.7076350769        0.5462476210        0.6760219478
 H         -5.6806212044       -0.6501315894       -0.0084583872
 H         -0.2160066489       -0.8336218785        2.8436517069
 H          2.0841397163       -1.0334454447        3.7129926710
 H          4.5087039221       -0.9754507558        3.3344970937
 H          6.4202133773       -0.5349551853        1.8523884944
 H          7.2915539726        0.1453625407       -0.3416555163
 H          6.9022345300        0.8666563411       -2.6616609518
 H          4.6081194369        1.1249932942       -3.5165589792
 H          2.1755740005        1.0608063659       -3.1412782745
 H          0.2742135449        0.5954748769       -1.6884944679
 H          0.1452699277       -2.0538169011       -1.3482311279
 H         -1.1587254492       -3.0937382434       -3.1948457502
 H         -3.5473834322       -2.4926294123       -3.4991049846
 H         -4.6373229063       -0.9475249761       -1.9033996667
 H         -3.2742686578        2.4427267274        1.6756986454
 H         -5.3184313899        3.6378827065        2.3955645866
  49
  -77.1680055300000       3.053948709479611E-002 !
 C         -6.8639530675        1.5747881926        1.8431116203
 C         -6.7916768203        0.4037845297        1.1071647146
 C         -5.5839667009       -0.0193411409        0.5850058539
 C         -4.4265422764        0.7318904254        0.7863815763
 C         -3.1356491091        0.2935982444        0.2857165785
 N         -1.9935456266        0.6237061018        0.9219759375
 C         -0.9856652954        0.0510988528        0.2910476541
 C          0.3840872442        0.1096499400        0.7689851035
 C          0.5658139010        0.0570840229        2.1532965865
 C          1.8219242342       -0.0196023025        2.7083887670
 C          2.9572817482       -0.0807431431        1.8950619464
 C          4.2636060211       -0.2623296611        2.4316560607
 C          5.3490822293       -0.3427114130        1.6270528229
 C          5.2271858105       -0.2203156472        0.2122709901
 C          6.3302915457       -0.3123241342       -0.6386502420
 C          6.1819535293       -0.1757169526       -2.0064740942
 C          4.9380185795        0.0722203857       -2.5574108392
 C          3.8069001673        0.1659602340       -1.7453313993
 C          2.5134191355        0.4547979842       -2.2685541922
 C          1.4195780543        0.4734103655       -1.4711437626
 C          1.5092611910        0.1951432235       -0.0739081914
 C          2.8010154603        0.0420990301        0.4924619078
 C          3.9429072358       -0.0001788270       -0.3452330188
 N         -1.4406254904       -0.6867025404       -0.7697401708
 C         -0.8097519391       -1.5421693517       -1.6236508319
 C         -1.5107506202       -2.1470693347       -2.6127438717
 C         -2.8983145518       -1.9001066973       -2.7653404060
 C         -3.5479758319       -1.1109561110       -1.8638688233
 C         -2.8287500705       -0.5253885083       -0.8079529254
 C         -4.5064838628        1.9018722781        1.5422309322
 C         -5.7152776203        2.3183782608        2.0636297513
 H         -7.8094943828        1.8997791578        2.2517881529
 H         -7.6811286975       -0.1888523823        0.9466838884
 H         -5.5329395358       -0.9545409188        0.0484304102
 H         -0.3146458155        0.0573845938        2.7771430112
 H          1.9381041129       -0.0680665915        3.7813772688
 H          4.3633992422       -0.3469565314        3.5045596969
 H          6.3352123751       -0.4957272958        2.0420429605
 H          7.3072083150       -0.4958087645       -0.2147529545
 H          7.0463608101       -0.2558953499       -2.6496272301
 H          4.8316018261        0.1945042896       -3.6258403066
 H          2.4260060093        0.6692846448       -3.3243658775
 H          0.4561699130        0.7322123700       -1.8858984784
 H          0.2439861934       -1.7044491024       -1.4637560525
 H         -1.0067816041       -2.8185301487       -3.2884106373
 H         -3.4291478479       -2.3540211577       -3.5866456874
 H         -4.6040809536       -0.9130571327       -1.9468526935
 H         -3.6029790268        2.4659091171        1.7137715095
 H         -5.7654697561        3.2260511752        2.6475347626
  49
  -77.1679362900000       2.838188513465232E-002 !
 C         -6.8985781694        2.3256737598        0.0000205588
 C         -6.7122389377        1.2508459785        0.8532640818
 C         -5.4845517200        0.6190420742        0.9249558472
 C         -4.4230318732        1.0516767132        0.1321884684
 C         -3.1294892247        0.3904284905        0.1266696127
 N         -2.0036507081        1.0615626854       -0.1876313801
 C         -0.9912852686        0.2153042543       -0.1547778110
 C          0.3648416028        0.5964206830       -0.5043117578
 C          0.5032100770        1.5170743419       -1.5464631634
 C          1.7398471187        1.8662222290       -2.0360761003
 C          2.9002994964        1.2802795551       -1.5221374529
 C          4.1877911990        1.5479792878       -2.0678861570
 C          5.2986965367        0.9546653388       -1.5719623329
 C          5.2225528082        0.0576114701       -0.4670804150
 C          6.3523924842       -0.5772648711        0.0523780182
 C          6.2487392987       -1.4335134085        1.1329932898
 C          5.0240279552       -1.6630814835        1.7328299212
 C          3.8678888960       -1.0522764565        1.2448072871
 C          2.5940752967       -1.2294760307        1.8579690638
 C          1.4755987468       -0.6788988109        1.3298996430
 C          1.5173858586        0.0908407137        0.1285279643
 C          2.7893298513        0.3939536751       -0.4226425193
 C          3.9576011686       -0.1966825276        0.1195309677
 N         -1.4325699105       -1.0485673373        0.1379089943
 C         -0.8000885890       -2.2560970128        0.1289025688
 C         -1.4969627034       -3.3864138275        0.3988475675
 C         -2.8895422012       -3.3291104876        0.6546837914
 C         -3.5387606269       -2.1317024125        0.6025555533
 C         -2.8138573358       -0.9581266389        0.3357994271
 C         -4.6125567892        2.1544141465       -0.7020829293
 C         -5.8397304974        2.7826037802       -0.7687467099
 H         -7.8621556842        2.8101773373       -0.0589595663
 H         -7.5291539727        0.9054894268        1.4710059680
 H         -5.3430835533       -0.1959409991        1.6186218400
 H         -0.3959014384        1.9356403292       -1.9711560641
 H          1.8213613602        2.5755230613       -2.8468851600
 H          4.2523603891        2.2334760452       -2.9011036203
 H          6.2705570632        1.1531132442       -2.0011814442
 H          7.3146655419       -0.3938049919       -0.4038374562
 H          7.1333282943       -1.9206139531        1.5172514390
 H          4.9523018911       -2.3206724837        2.5873997468
 H          2.5421618458       -1.8096297022        2.7685794599
 H          0.5294141863       -0.7932077406        1.8384267212
 H          0.2501860306       -2.2562497833       -0.1143903585
 H         -0.9898770212       -4.3373778997        0.3958636279
 H         -3.4270307164       -4.2404046565        0.8620442292
 H         -4.6054769054       -2.0652963029        0.7381314978
 H         -3.7798782651        2.4977887168       -1.2957975843
 H         -5.9758445613        3.6296701873       -1.4255447557
