  49
        -77.16990929
 C         -5.6795985107        3.2955462004        0.6543261216
 C         -4.4748129310        3.2722638858        1.3390267962
 C         -3.5856701207        2.2347205289        1.1444465696
 C         -3.8871899301        1.1970192901        0.2606365663
 C         -2.9240265023        0.1235228801        0.0920745257
 N         -1.6172315128        0.3252395608        0.3661834733
 C         -0.9676278928       -0.8000974635        0.1487639100
 C          0.4503867740       -1.0164364920        0.3862934434
 C          0.8560556278       -2.1793163245        1.0438331048
 C          2.1855269667       -2.4337524144        1.2991512582
 C          3.1736905291       -1.5303239269        0.9037207463
 C          4.5564341549       -1.7706932154        1.1468248264
 C          5.5009889007       -0.8801160197        0.7654573291
 C          5.1458920070        0.3330712143        0.1064906218
 C          6.1045348575        1.2634976064       -0.2982249566
 C          5.7298802462        2.4325267536       -0.9347119207
 C          4.3964289660        2.7019635096       -1.1811574895
 C          3.4035011080        1.7997823330       -0.7947401560
 C          2.0199150894        2.0415636547       -1.0331319747
 C          1.0715132968        1.1525910230       -0.6557368748
 C          1.4158772407       -0.0648343075        0.0001924358
 C          2.7850924690       -0.3329774994        0.2529498459
 C          3.7763722990        0.5985977789       -0.1438232362
 N         -1.8285603798       -1.7744899582       -0.2801557971
 C         -1.6095272198       -3.0479373981       -0.7124081525
 C         -2.6555792603       -3.8205671464       -1.0918952676
 C         -3.9780468408       -3.3121515986       -1.0385664675
 C         -4.1946159740       -2.0193055161       -0.6658215422
 C         -3.1047242184       -1.2036701670       -0.3149089012
 C         -5.0895592002        1.2427319019       -0.4432295394
 C         -5.9780222325        2.2823768546       -0.2413293479
 H         -6.3787397068        4.1040319409        0.8105847423
 H         -4.2313803200        4.0670557991        2.0292052152
 H         -2.6431422706        2.2039765633        1.6685433521
 H          0.1089854948       -2.8775111030        1.3954404567
 H          2.4717875388       -3.3372467798        1.8185012452
 H          4.8317540006       -2.6886369185        1.6470877126
 H          6.5482413252       -1.0702178077        0.9534991761
 H          7.1487473645        1.0599464940       -0.1081985613
 H          6.4857498755        3.1409913414       -1.2414168031
 H          4.1104437206        3.6180447970       -1.6777401972
 H          1.7424361096        2.9614104373       -1.5282038055
 H          0.0268801629        1.3576461083       -0.8266005605
 H         -0.5839016012       -3.3808551887       -0.7447232532
 H         -2.4806793174       -4.8280091603       -1.4323694488
 H         -4.8014557955       -3.9542475134       -1.3071507223
 H         -5.1897522550       -1.6083627750       -0.6223716324
 H         -5.3186404808        0.4808962277       -1.1723147971
 H         -6.9077429977        2.3060652660       -0.7917317881
