  79
       -120.89551546
 C          9.2965150934        2.0876534489       -0.2679527957
 C          8.2606270172        2.4339119292        0.5847233870
 C          7.0920486325        1.6980949362        0.6012612968
 C          6.9420741738        0.6003399084       -0.2467699313
 N          5.7601756189       -0.1477231508       -0.2357879633
 C          5.8121223481       -1.5361778479       -0.3966816230
 C          4.8199997961       -2.2038404563       -1.1162188288
 C          4.8734898406       -3.5756633682       -1.2649535777
 C          5.9143725079       -4.3026396288       -0.7098980830
 C          6.9046399859       -3.6441079810        0.0011433414
 C          6.8566076758       -2.2733460901        0.1626026234
 C          4.5274800362        0.4889186588       -0.0724794141
 C          3.4974872690       -0.1334559461        0.6362815234
 C          2.2725487833        0.4800438317        0.7695379033
 C          2.0307725445        1.7393677052        0.2161218296
 C          0.7107563037        2.3626993076        0.3437937012
 C          0.5801702520        3.7481551751        0.5485422934
 C         -0.6890751797        4.3185082672        0.6265475888
 C         -1.8154289664        3.5459299680        0.5337805889
 C         -1.7160624472        2.1303496072        0.3688984203
 C         -2.9099330408        1.3975683670        0.2814939698
 N         -4.0978501333        1.9874424153        0.0388965398
 C         -4.9810710272        1.0235942604       -0.1330458132
 C         -6.3580639659        1.1583318488       -0.4773112455
 C         -6.9085413151        2.4170143982       -0.7210342737
 C         -8.2328787803        2.5410411197       -1.0928652429
 C         -9.0044492753        1.3972414108       -1.2299594557
 C         -8.4684577720        0.1451063881       -0.9839342523
 C         -7.1352639977       -0.0186959984       -0.5903765355
 C         -6.5519628823       -1.3152091978       -0.2860305189
 C         -7.3171539594       -2.4783713918       -0.2935808483
 C         -6.7926932901       -3.7148515859        0.0325384583
 C         -5.4513108996       -3.8249760405        0.4097863832
 C         -4.6546594387       -2.7153730897        0.4256616720
 C         -5.1563031376       -1.4367015821        0.0632469971
 C         -4.3853382170       -0.2735958988        0.0596595524
 N         -3.0594326126       -0.0152052400        0.3265991960
 C         -2.0488897801       -0.9159853630        0.6772059476
 C         -1.6455906249       -1.9139811483       -0.2133100291
 C         -0.6170749047       -2.7682426833        0.1307513383
 C          0.0174873505       -2.6447007571        1.3584601241
 C         -0.3860472079       -1.6581758762        2.2467413552
 C         -1.4104274480       -0.7943114831        1.9134261422
 C         -0.4195216004        1.5771671603        0.2520849329
 C          3.0727798068        2.3672486971       -0.4673065454
 C          4.2974809520        1.7534078196       -0.6182991254
 C          7.9866115563        0.2581908099       -1.1062841390
 C          9.1532075352        0.9971739127       -1.1107288430
 H         10.2088338302        2.6641139728       -0.2764338724
 H          8.3664573916        3.2791048518        1.2486273551
 H          6.2901489728        1.9608974211        1.2753728338
 H          4.0139871042       -1.6383550325       -1.5601516495
 H          4.1003760068       -4.0797289561       -1.8257794091
 H          5.9536679532       -5.3744387910       -0.8305036176
 H          7.7167614579       -4.2031754514        0.4418372650
 H          7.6226062151       -1.7639830013        0.7287154030
 H          3.6707099148       -1.0997921383        1.0868980854
 H          1.4933909634       -0.0117953844        1.3323491094
 H          1.4608619334        4.3624608006        0.6538602613
 H         -0.7803951320        5.3861074991        0.7671877918
 H         -2.8022672989        3.9739648051        0.5957027719
 H         -6.2671027832        3.2778908073       -0.6155433887
 H         -8.6607014036        3.5143044408       -1.2804203113
 H        -10.0392013207        1.4786741838       -1.5309931913
 H         -9.1109617879       -0.7118406582       -1.1087354343
 H         -8.3632421431       -2.4300878147       -0.5512944682
 H         -7.4227569996       -4.5910056837        0.0111475739
 H         -5.0480328366       -4.7860538535        0.6933679128
 H         -3.6280904763       -2.8037227281        0.7404585166
 H         -2.1382264142       -1.9986027744       -1.1710973000
 H         -0.3015732349       -3.5311038502       -0.5655801768
 H          0.8238369358       -3.3128877348        1.6201190515
 H          0.0999988673       -1.5644486041        3.2070860610
 H         -1.7245697523       -0.0183583938        2.5956084301
 H         -0.3030803645        0.5339574219        0.0106785124
 H          2.9063710446        3.3333225082       -0.9201277753
 H          5.0833014669        2.2415711789       -1.1762757385
 H          7.8718122495       -0.5846268407       -1.7720954797
 H          9.9533278499        0.7239134451       -1.7826732700
