79
 energy: -120.988700194133 gnorm: 0.000044169342 xtb: 6.7.1 (edcfbbe)
C            7.16272343592105        3.66877521105736        1.02941114851142
C            6.43120741702085        2.85384832287094        1.87787811648932
C            5.96820535753742        1.62703421393024        1.44404979764544
C            6.22535461316437        1.19918138678800        0.14154070340640
N            5.75596237271728       -0.04163818985046       -0.30437921728468
C            6.54089770186502       -0.81437435105616       -1.16898228932078
C            5.94856940933944       -1.55019394108113       -2.19504529222308
C            6.72736091297663       -2.31306502829933       -3.04312918975500
C            8.10372401914246       -2.34904313448293       -2.89056682727991
C            8.69739593266907       -1.61628349705118       -1.87587987866167
C            7.92647593178742       -0.85735100144625       -1.01705719947896
C            4.50538472606082       -0.50728004543601        0.10933232157331
C            4.29445573901679       -1.86582696468822        0.34863597830137
C            3.05800994964012       -2.32134057279918        0.75456602770094
C            1.99201452832698       -1.44239023675957        0.93780974331126
C            0.67305108594674       -1.92272911275575        1.36929219873848
C            0.54835612700218       -2.93366091915999        2.32020420907779
C           -0.70261433547982       -3.37825063342037        2.70991163479509
C           -1.84435852223806       -2.80842839341180        2.18081488274268
C           -1.73980921935821       -1.77835212028312        1.24616436423204
C           -2.96386495991282       -1.19333893873935        0.72117646706280
N           -4.05407553082558       -1.88073296290387        0.49501149763733
C           -4.96210226801955       -0.99536873049949        0.00753831550572
C           -6.29017226761681       -1.25900923857174       -0.42871504873114
C           -6.81737312039763       -2.55436868485757       -0.40221489217134
C           -8.08938455977719       -2.79411182492389       -0.85790812688721
C           -8.85016100889646       -1.73584693046194       -1.35116198433368
C           -8.34367847654819       -0.45752698117421       -1.37649143236197
C           -7.05118457676652       -0.16995931179901       -0.91135538054622
C           -6.49944699629372        1.17381389936563       -0.89364222125815
C           -7.25690353520335        2.28420019729112       -1.29265263539193
C           -6.75974553426952        3.56468913438312       -1.23912208627624
C           -5.47341025581002        3.79444529035142       -0.76191173031414
C           -4.69525751026061        2.73403954413751       -0.36830046076027
C           -5.17281593219115        1.41760239050766       -0.44212983316508
C           -4.40881525285582        0.28274856730632       -0.04932164466596
N           -3.11630001802004        0.14012998038500        0.40358027056530
C           -2.11320645821951        1.12014471394294        0.53490183725248
C           -1.60241441208592        1.41769905222169        1.79292369097300
C           -0.58559934787588        2.34750088404068        1.91692062374789
C           -0.07754645767087        2.97994590449257        0.79389562569734
C           -0.58846555558850        2.68289410141316       -0.45984939557648
C           -1.60265474513248        1.75315013476549       -0.59508242879014
C           -0.48017414607466       -1.36087229652713        0.83111788108126
C            2.20920369194056       -0.08567775117445        0.70033146526759
C            3.44153326821136        0.37710176055115        0.29165987486163
C            6.95888181388260        2.02536021564949       -0.70980200110297
C            7.42507383881485        3.24660044364919       -0.26363539339028
H            7.52615826718183        4.62517753214197        1.37343951944042
H            6.22701283724914        3.17157717600125        2.88993678613418
H            5.40736835428343        0.98891467553620        2.11131783875279
H            4.87641295727296       -1.51581064349796       -2.32249730568509
H            6.25595549106511       -2.87677858637813       -3.83478335569366
H            8.70921311653039       -2.94365643282183       -3.55755461122087
H            9.76936229846621       -1.64222693576911       -1.74594668459043
H            8.39094634581666       -0.29445010514936       -0.22057690429897
H            5.11011690460482       -2.56120563062640        0.21441481149745
H            2.91208669819130       -3.37872451587566        0.91910341880947
H            1.43514844899366       -3.36309819369779        2.76252922416176
H           -0.78678576270352       -4.17015378024840        3.43980417904679
H           -2.82579387158787       -3.14246542806263        2.47791327756108
H           -6.19050647279001       -3.34572056055941       -0.02158668748750
H           -8.50025624125335       -3.79282639301338       -0.84131493142625
H           -9.84955173024554       -1.92073825975224       -1.71821623800097
H           -8.96863202554342        0.32835330476651       -1.77023683148254
H           -8.26590841023516        2.14561446649480       -1.64592831369597
H           -7.37395354070143        4.39496791620276       -1.55542065332884
H           -5.08919429064643        4.80173666088220       -0.69638055443076
H           -3.70600772290725        2.91951884142928        0.01918907961691
H           -2.00141003896072        0.91515447664120        2.66136004655484
H           -0.18736135771490        2.57626687487386        2.89395541296326
H            0.71927237382846        3.70138457989526        0.89440500264940
H           -0.19121378794838        3.17162924480615       -1.33670812036165
H           -2.00589044778481        1.51074879166861       -1.56761526590033
H           -0.38387486984640       -0.61869501467928        0.05353501496346
H            1.40413540850267        0.61872168236235        0.84994728830054
H            3.58878809418127        1.43138232844047        0.10780386155965
H            7.15699154984124        1.70297751093010       -1.72160160761733
H            7.99060304187813        3.87701624473066       -0.93406958863227
