80
 energy: -125.509919324671 gnorm: 0.000181347443 xtb: 6.7.1 (edcfbbe)
C            1.30792900178097        4.38601226653921       -0.77079453764187
C            0.59589760781053        3.34370403896298        0.03909923480637
C           -0.78986956779417        3.30835406581020        0.03398599671062
C           -1.51555653343395        2.35157443667237        0.73447679737705
C           -2.98847466440128        2.39994255219235        0.66198329236550
C           -3.66170152708173        3.56927293346936        1.00593027800743
C           -5.04031142700800        3.63621215078217        0.91976126142719
C           -5.76847249781889        2.54427341243553        0.48363991970171
C           -5.10411699866934        1.37712093511716        0.12089713355827
N           -5.83378418610234        0.26853525565321       -0.34147419221403
C           -6.77134488689941        0.28922932711800       -1.35751926320173
C           -7.17455709859149        1.34254283894401       -2.16515762944822
C           -8.12585632811602        1.08294435105437       -3.13294158653395
C           -8.66168101529643       -0.19181352314912       -3.30479450886791
C           -8.24792979505551       -1.24852638581810       -2.51908820914156
C           -7.29260577504763       -1.01143094934882       -1.53943922707582
C           -6.63357283421651       -1.85083626524824       -0.57804323774946
C           -6.73100463129149       -3.19561477637266       -0.26669427139231
C           -5.93859185067017       -3.69328383477657        0.76454494456983
C           -6.00976031251129       -5.06140256522967        1.10405477385624
N           -6.06569897309537       -6.17353080607742        1.38066304000528
C           -5.07339887073796       -2.85305081775187        1.48489939890211
C           -4.96970846136735       -1.51338249776262        1.18332494902393
C           -5.73920142918002       -1.01488994431293        0.13794807579292
C           -3.71946570754065        1.30739453492426        0.21156989488550
C           -0.83277504712286        1.38873380227985        1.48193329333124
C           -1.54823259125415        0.34872262127530        2.29191833736290
C            0.55232511358269        1.42376789974129        1.48674179781146
C            1.27862961722116        2.38214383538530        0.78816261909221
C            2.75036221168609        2.34071226629492        0.87508298464744
C            3.48352453879478        3.44543805226919        1.29954357658004
C            4.86064024814383        3.37256501545504        1.40515923156794
C            5.52786486394591        2.20126319529365        1.09594798227934
C            4.80439685220935        1.09136355450877        0.67145856544765
N            5.46702224296147       -0.10785913347784        0.36143459608248
C            5.14991649499019       -1.35463906217717        0.86814444978729
C            4.17572689920111       -1.71211420151375        1.78868394345334
C            4.08575211921003       -3.04357665753589        2.14642318703850
C            4.94575987706090       -4.00092012646925        1.61229372109974
C            5.93187009774439       -3.64779249063307        0.71334468664740
C            6.04075100762101       -2.31497616736102        0.33862552258238
C            6.93375059585312       -1.60298465139052       -0.53263839117155
C            7.99361371707542       -1.99481780989878       -1.33130317401067
C            8.64847367842370       -1.02203630401777       -2.08212499278858
C            9.73733630037458       -1.38717708629300       -2.90267948124631
N           10.62330395981111       -1.68277392615902       -3.56900605840066
C            8.23805767920480        0.32105045553166       -2.04606868000485
C            7.18465674007874        0.72148688201372       -1.25447185499744
C            6.54166325268087       -0.24092499110729       -0.48360051622276
C            3.42158003579072        1.16464619416585        0.56197055772345
H            2.30669123087379        4.05705893038493       -1.04673765142264
H            0.74589832830643        4.60596761799867       -1.67615655176140
H            1.39852817779764        5.31319770111639       -0.20434605519600
H           -1.33032688809756        4.03991537856673       -0.55087634376962
H           -3.09724131984785        4.42126289859148        1.35460184300101
H           -5.55425251730700        4.54353896237727        1.20025584233713
H           -6.84588413331136        2.58518114223207        0.43149288962964
H           -6.75322555011966        2.32964867046252       -2.04971385250263
H           -8.45944202583145        1.88601388469684       -3.77314937117707
H           -9.40532217692210       -0.35223459052000       -4.07071985734683
H           -8.65211142628545       -2.23918668154947       -2.66117594997599
H           -7.40458921723514       -3.84705628127387       -0.80256737768403
H           -4.48827830510116       -3.27410902962041        2.28909989224681
H           -4.31843823643044       -0.86918450744702        1.75280885349471
H           -3.20929935580291        0.40900615841182       -0.10178130369743
H           -1.69970326163443       -0.55689659165123        1.70333599609992
H           -2.51840669402175        0.71277941612847        2.62303095019181
H           -0.95828940075341        0.07989336884744        3.16566997711241
H            1.09090066733324        0.69250806279861        2.07368546702396
H            2.96895071735811        4.35532128330441        1.56700450374343
H            5.42032144041470        4.23223835612635        1.74250885715733
H            6.60038190178893        2.13506553710780        1.19910227202340
H            3.51785918988662       -0.97405266604320        2.22170809808308
H            3.33410224199217       -3.34907269352855        2.85907456199502
H            4.84099017283427       -5.03154407741095        1.91587796032721
H            6.60820239685180       -4.38645522574501        0.31105891950466
H            8.30778761710741       -3.02649863347509       -1.37852715764371
H            8.76230211846711        1.04219250274142       -2.65542815912607
H            6.86376434553183        1.75196043816228       -1.24311600458126
H            2.86684717543288        0.30801771139914        0.20807523999688
