80
 energy: -125.509254287739 gnorm: 0.000056120276 xtb: 6.7.1 (edcfbbe)
C            1.28143513572072        1.49719834944543       -1.76907677464416
C            0.59109212824996        1.79194343236924       -0.47054881062701
C           -0.79410181489510        1.81850441206520       -0.42636701483101
C           -1.49834230750489        2.11875159455731        0.73417588578205
C           -2.97256308426420        2.13321768902295        0.67718197350717
C           -3.69932955634080        3.26548229718740        1.03407005852909
C           -5.07982531819800        3.26617601469878        0.94929348818568
C           -5.75745888699428        2.13890754551106        0.52170865969922
C           -5.03974587361297        1.00529880592342        0.15412218689403
N           -5.71629594220939       -0.14672453302577       -0.28083744853666
C           -6.68329314993258       -0.19184070446534       -1.26779779143268
C           -7.16274953481353        0.82464019468203       -2.08103250798827
C           -8.12592434055871        0.49906322182819       -3.01665268443823
C           -8.59981467442905       -0.80434358486815       -3.15153362734518
C           -8.11080932266495       -1.82390026763845       -2.35992026153962
C           -7.14210027497098       -1.52045927170965       -1.41227275483966
C           -6.41347479105722       -2.30754115496743       -0.45677916114852
C           -6.43473470291235       -3.64937125239769       -0.11931217466907
C           -5.58780808736713       -4.08765841924666        0.89531881031012
C           -5.58208574807834       -5.45068496957860        1.26184301486156
N           -5.57623726601431       -6.55859728331611        1.55997503222692
C           -4.74201306038625       -3.19291709860971        1.57177206693432
C           -4.71325059284485       -1.85562752483464        1.24389118982493
C           -5.54111444920609       -1.41509344671426        0.21692059736072
C           -3.65230817848922        1.00959193791492        0.22237445464677
C           -0.79493252011285        2.39416642104373        1.90942266030802
C           -1.48568346122384        2.69205574854951        3.20714773156597
C            0.59018293894836        2.36675593062601        1.86556751103287
C            1.29465380163613        2.06841692270873        0.70452096557096
C            2.76859345320131        2.05906318967597        0.76532216374476
C            3.45361713661732        3.17876752929616        1.22962747637804
C            4.83439728141749        3.17339544576089        1.30710336118132
C            5.55235741846563        2.04960786670839        0.94038807163564
C            4.87679754389174        0.92339417716327        0.48141033097423
N            5.59271625248399       -0.22824531139427        0.11361969804990
C            5.35111277959299       -1.50868675296228        0.57670198237371
C            4.41190943624705       -1.95304576255742        1.49592852191801
C            4.40076488772911       -3.30011782954336        1.80344663582507
C            5.30296847493171       -4.18824291939811        1.22144981435825
C            6.25310328609440       -3.74843938540958        0.32200375767736
C            6.28315445791076       -2.39854999637939       -0.00290098565151
C            7.12129313517413       -1.60723027065230       -0.86004560752700
C            8.18584575588312       -1.91109539501061       -1.69015105983751
C            8.77418245349607       -0.87695373522269       -2.41357530429745
C            9.86537523992570       -1.15214761090025       -3.26549650585704
N           10.75298923461110       -1.37509212108969       -3.95745455460131
C            8.29361246015901        0.43976996257172       -2.31913116742686
C            7.23488596412512        0.75282980233491       -1.49584667866633
C            6.65805916727781       -0.27114024880124       -0.75231239509994
C            3.49070365268548        0.93296563146129        0.38975665650535
H            1.39305620118442        0.42139304256819       -1.90747144955479
H            0.69295456597090        1.87735626300361       -2.60153991357363
H            2.27009942725456        1.94856598999818       -1.80131513087301
H           -1.35089353471913        1.61937326120495       -1.33178686763991
H           -3.17717743830141        4.15139932146165        1.36107181539903
H           -5.63530149400767        4.14946789092701        1.22735166203019
H           -6.83606263145569        2.12620668712956        0.48150624249202
H           -6.78995465520462        1.83400015909927       -1.99443759078575
H           -8.51804067621404        1.27214748311418       -3.66059588354829
H           -9.35472098328873       -1.01669555956573       -3.89343820221547
H           -8.46704982377986       -2.83637911904301       -2.47371899960184
H           -7.09128241639316       -4.34296364016043       -0.62245736702105
H           -4.11062391956925       -3.57003941114330        2.36255834516135
H           -4.07223264224131       -1.17097112655008        1.77804467706797
H           -3.09778326593540        0.13256933675939       -0.07831175714622
H           -1.57943800273786        3.76879561929405        3.35036469315500
H           -0.90728706699727        2.29736463092349        4.04000726549767
H           -2.48266961702408        2.25902863052722        3.23293841537779
H            1.14704153505805        2.56636485000958        2.77086605718758
H            2.89699592540294        4.05845558934594        1.51662083652949
H            5.35729800590617        4.04785634190005        1.66479185412525
H            6.62851016726502        2.03257837858645        1.02369445791130
H            3.71933689005111       -1.27043190829594        1.96463459938780
H            3.67786069168947       -3.67248272421231        2.51392139960606
H            5.25965428284653       -5.23358839606840        1.48738226438173
H            6.96163635911587       -4.43326892255605       -0.11833666357704
H            8.55360065253242       -2.92185189019937       -1.78201102744208
H            8.76754656797635        1.21054408867267       -2.90861642805868
H            6.86020203154037        1.76350949311366       -1.43945324791388
H            2.97491732666427        0.05547536775091        0.03071645676659
