80
 energy: -125.405437018426 gnorm: 0.000141818798 xtb: 6.7.1 (edcfbbe)
C            1.21137802426613        4.76057889700137       -0.30577603304740
C            0.55769643922609        3.55104242841945        0.29212767067097
C           -0.79878642957010        3.50507478479622        0.35952428382555
C           -1.54723778088801        2.34466337591047        0.72315390657847
C           -2.96852879536856        2.38558979849744        0.64130538770589
C           -3.67045068309149        3.59108355667980        0.92156986701044
C           -5.03833310004845        3.65962917224174        0.83720520341992
C           -5.78636006521588        2.55517879609421        0.44320681371783
C           -5.11519178628063        1.36517595182149        0.12670763410644
N           -5.85862277431544        0.25665014266781       -0.31853411480591
C           -6.77615106699742        0.27338462392291       -1.35097296948528
C           -7.14319419955401        1.31795978465623       -2.18761228154073
C           -8.08387437437127        1.05789298912984       -3.16571444409670
C           -8.64221062082510       -0.20923231316920       -3.32087709847420
C           -8.26314964585810       -1.25862499557604       -2.50679081189074
C           -7.32050261889829       -1.02068242710430       -1.51608823100802
C           -6.69306224404038       -1.85260629710899       -0.52669352227387
C           -6.81971173985930       -3.18827757963355       -0.19037711171180
C           -6.05276771674381       -3.67907304272107        0.86408175172584
C           -6.15346428306910       -5.03887480828193        1.22835348576166
N           -6.23374406167861       -6.14451079367562        1.52435925683309
C           -5.18526803776975       -2.83959368763949        1.58267659061937
C           -5.05265381128073       -1.50853456962549        1.25563948919784
C           -5.79525019895866       -1.01743540996183        0.18732437023721
C           -3.74525362202809        1.27626371001979        0.23353692658306
C           -0.77661647702979        1.17793022319311        1.10430039003682
C           -1.43193347612489       -0.03197550661549        1.69900077643696
C            0.57965562932180        1.22460558029475        1.04098056458785
C            1.32889188184509        2.38853475149854        0.68701903952789
C            2.74665993184201        2.36002990611848        0.79674189287230
C            3.51998706224971        3.48912337799207        1.18296689522208
C            4.88707423219222        3.41883585083002        1.28234864788965
C            5.56738029665036        2.23583903295142        1.01080009537996
C            4.82646312494979        1.10344642091200        0.63919268256750
N            5.49522606131489       -0.10375630159020        0.37332507754050
C            5.18822716933515       -1.33157768966200        0.92732776377261
C            4.22390972382284       -1.65840978546021        1.87003670947543
C            4.14383069197407       -2.97589743667160        2.27884189274346
C            5.00282522470677       -3.94872889196721        1.77206815776280
C            5.98002465108306       -3.62526970036124        0.85101231933729
C            6.07915727035618       -2.30767439529938        0.42590732322211
C            6.96104762067733       -1.62370563583412       -0.47982759421013
C            8.01551822542857       -2.03781983336318       -1.27301285546453
C            8.65728603599783       -1.08809147574538       -2.06533312070014
C            9.74013394083283       -1.47750008130703       -2.88267255398139
N           10.62129770178648       -1.79369155074965       -3.54586791015129
C            8.23899367985936        0.25295201066266       -2.07475268130251
C            7.18905307419773        0.67528253936758       -1.28975258418417
C            6.56026461485402       -0.26270379646149       -0.47747735822448
C            3.45532235752678        1.15905863998010        0.54481145353033
H            2.15032677358320        4.50303382303735       -0.78891637771285
H            0.55061126398058        5.21206240590776       -1.04380359558626
H            1.40867234167828        5.51597860687349        0.45620649757073
H           -1.35563017784595        4.36224399360130        0.00908778030644
H           -3.11645998116948        4.45098602658816        1.26422350199343
H           -5.54641666966371        4.58016632854158        1.08503440916904
H           -6.86256553467312        2.59902928056756        0.39276286570263
H           -6.70191457855251        2.29760673209516       -2.08472988451495
H           -8.38997281134882        1.85385004387020       -3.82803905934527
H           -9.37544362146091       -0.37097531385339       -4.09648997769266
H           -8.68503608111078       -2.24355793645079       -2.63666072982404
H           -7.49614106071527       -3.83873962541966       -0.72388122634771
H           -4.62107662962296       -3.25419700604280        2.40485455754296
H           -4.40007085781032       -0.86357225680614        1.82228771956193
H           -3.25713231248248        0.36926614121009       -0.08266802928703
H           -1.69282474021719       -0.76125867205664        0.93090048527281
H           -2.33492630602858        0.24580269085542        2.23750451710643
H           -0.75044425156983       -0.52216797276593        2.39191297838641
H            1.13316607835124        0.36404085025259        1.38799234997533
H            3.01718618345742        4.39681019187599        1.47029435561131
H            5.44665258973765        4.28791927691066        1.59619789688187
H            6.63781976633881        2.17023127727938        1.12270867250297
H            3.56764162288468       -0.90631143599864        2.28091660769796
H            3.40074802490047       -3.25767389135122        3.00991281271469
H            4.90544027215110       -4.96792720912122        2.11411814298969
H            6.65602574592885       -4.37595563065429        0.47113110507280
H            8.33664999963379       -3.06834453769504       -1.28597881162382
H            8.75286223494000        0.95411509924620       -2.71535131408161
H            6.85899659619312        1.70252916602256       -1.31349161559393
H            2.92025233241579        0.28663833560098        0.20254172393850
