80
 energy: -125.405432017903 gnorm: 0.000148464681 xtb: 6.7.1 (edcfbbe)
C            1.24185021105482        4.72905723473382       -0.20442260782972
C            0.57932258783177        3.50806724279466        0.35965024470874
C           -0.77735195677945        3.46819533270364        0.42406570739782
C           -1.53309515106081        2.30257284822139        0.75470730151117
C           -2.95454424530415        2.36013562970285        0.68470206525972
C           -3.64020996420155        3.56420887255961        1.00866672331683
C           -5.00771245162488        3.65171129908780        0.93719030704250
C           -5.77189371483093        2.56911890003839        0.51473375567789
C           -5.11734962084148        1.38189221163772        0.15595865712992
N           -5.87766626008315        0.29657498562444       -0.31704635812530
C           -6.80332848375576        0.35619405822805       -1.34054488011738
C           -7.16410122891790        1.43039380794498       -2.14165090334613
C           -8.11621496275388        1.21213245370637       -3.11889352504967
C           -8.69180407577679       -0.04263611784672       -3.30776333925166
C           -8.31923939036127       -1.12111936114044       -2.52946522487528
C           -7.36542045082071       -0.92535991522510       -1.54022876388439
C           -6.74070568966095       -1.79472497769195       -0.58176417953844
C           -6.88189051550468       -3.13820141956586       -0.28462089068940
C           -6.11325512881345       -3.67010883106216        0.74847804067061
C           -6.22887481537665       -5.03885550663985        1.07262426956288
N           -6.32098607817528       -6.15176641813444        1.33586486157534
C           -5.22946135763053       -2.86368635167888        1.48484796543471
C           -5.08211784257991       -1.52524423590163        1.19664069025001
C           -5.82661523105671       -0.99289300320250        0.14961302032185
C           -3.74771508887019        1.27351262766268        0.24854199346951
C           -0.76964612498270        1.11783336686842        1.09310253207966
C           -1.43237514593717       -0.10920444954500        1.64267070117833
C            0.58713554466401        1.15844222989444        1.03231117446561
C            1.34295387687669        2.33062129011915        0.72325119115578
C            2.75938756664888        2.29743690499539        0.84787522147158
C            3.52478650973034        3.41380966476936        1.28365703005296
C            4.89048407288464        3.34244600462452        1.39906679327614
C            5.57657741268114        2.17122374001907        1.09351243262816
C            4.84349671273514        1.05182380635970        0.67011414472020
N            5.52073684817642       -0.14124673807180        0.36508474618556
C            5.21228705356943       -1.39241417402422        0.86333674861391
C            4.23559959489422       -1.76291423683129        1.77669698786895
C            4.15658434813013       -3.09665087010676        2.12919387861699
C            5.02851789370834       -4.04340323079002        1.59585454746750
C            6.01808180346491       -3.67708820634975        0.70454614262517
C            6.11644833803329       -2.34247517925919        0.33616666905577
C            7.00874589402064       -1.61728974033036       -0.52625842360479
C            8.07868051803472       -1.99296539661031       -1.31792131855210
C            8.72776635313572       -1.00823587830050       -2.05990393541688
C            9.82686955267896       -1.35769078896574       -2.87358856887510
N           10.72157378492362       -1.64104930464715       -3.53354422408420
C            8.30113075012593        0.32967720495899       -2.02202502821609
C            7.23583916113818        0.71385928951514       -1.23811274779401
C            6.59992285616400       -0.25970453178026       -0.47467616595981
C            3.47328554600823        1.10753479256986        0.56159883022957
H            2.18671858796925        4.48061802544414       -0.68067961934956
H            0.59094133480831        5.19642220358937       -0.94137866271878
H            1.42986383627786        5.46837121501344        0.57545030067896
H           -1.32868456581974        4.33825637084251        0.09745475991538
H           -3.07351157878331        4.40621742791406        1.37419791226288
H           -5.50268840020726        4.56998927559005        1.21777429243322
H           -6.84786109668401        2.62708742729833        0.47427576411994
H           -6.70961116007610        2.40087760965037       -2.01269825846182
H           -8.41785147154520        2.03176899653802       -3.75382254483294
H           -9.43357268668028       -0.17142659561661       -4.08142966644700
H           -8.75472604029023       -2.09626376244327       -2.68563106856921
H           -7.57070662056489       -3.76376229134587       -0.83187594399996
H           -4.66445144685926       -3.30990841794773        2.28972804950626
H           -4.41689864700012       -0.90583534782782        1.77697070875365
H           -3.27347873298921        0.37110088156684       -0.10012320539100
H           -1.70626763013309       -0.80371796894018        0.84737199725403
H           -2.32863345353301        0.15493871745745        2.19903332066284
H           -0.75085465100909       -0.63399204581676        2.30968944024134
H            1.13558967510170        0.28267988437508        1.34794669353059
H            3.01550176029034        4.30969270885315        1.59575511952019
H            5.44401900064058        4.20044081021048        1.75170591951765
H            6.64554136569682        2.10328550763860        1.21740464692967
H            3.56899937983388       -1.03185780780589        2.20834493265016
H            3.40390862959809       -3.41220923091445        2.83625238989879
H            4.93142589635656       -5.07644080000694        1.89359660684789
H            6.70416577537062       -4.40793281466184        0.30457750363663
H            8.40627693537644       -3.02033827483050       -1.36745315255348
H            8.82101410941764        1.05923206319287       -2.62496471575382
H            6.89983671589826        1.73937168790047       -1.22600732255928
H            2.94397987186350        0.24732431865244        0.18146964246480
