  58
  -91.8243877330000       0.255465058165516      !
 N          5.8374411297       -3.9538739583       -0.2246548338
 C          6.0061450911       -2.8204774647       -0.1593256575
 C          6.2918454354       -1.4406745982       -0.0795564933
 C          7.6825529051       -1.2021361526       -0.0665562387
 N          8.8232220405       -1.0745786882       -0.0587390980
 C          5.3400725892       -0.4616334157       -0.0231902887
 C          5.5729393729        0.9796610132        0.0585464627
 C          6.7452965067        1.7142497819        0.1023512036
 C          6.6594066088        3.0989773739        0.1820748283
 C          5.4318011812        3.7389458763        0.2171999799
 C          4.2480486642        3.0111739776        0.1726414715
 C          4.3229080022        1.6365418147        0.0935933703
 C          3.2763676365        0.6239886446        0.0327266063
 C          1.9071414202        0.7474978096        0.0347020052
 C          1.1151410283       -0.4073213201       -0.0197934515
 C         -0.3442160135       -0.3019526014       -0.0131973206
 C         -0.9939205694        0.7181060902       -0.7103578969
 C         -2.3675859170        0.8132118073       -0.7176618208
 C         -3.1473323439       -0.1024518333       -0.0059509919
 N         -4.5349219911       -0.0054048773       -0.0044559042
 C         -5.3260059925       -1.1609931545        0.0700756577
 C         -6.4963551462       -1.1639438458        0.8274854768
 C         -7.2780350633       -2.3010376462        0.8938721232
 C         -6.9041643591       -3.4499341238        0.2162427239
 C         -5.7415249359       -3.4518082683       -0.5369301621
 C         -4.9576268857       -2.3171341001       -0.6165629690
 C         -5.1581002243        1.2485499925       -0.0750953638
 C         -6.3186006649        1.4154327512       -0.8294302079
 C         -6.9360323870        2.6496532218       -0.8906608555
 C         -6.4060053481        3.7338461491       -0.2104910865
 C         -5.2523381406        3.5730214839        0.5392771266
 C         -4.6319659548        2.3409671229        0.6132230324
 C         -2.5010749595       -1.1183184105        0.7037357870
 C         -1.1280309396       -1.2187577318        0.6895961513
 C          1.7362192255       -1.6564425062       -0.0798695378
 C          3.1144743337       -1.7885059004       -0.0908642494
 C          3.8968505860       -0.6451197239       -0.0334835043
 H          7.7110991742        1.2357666313        0.0761641714
 H          7.5671640242        3.6820785412        0.2174908353
 H          5.3929377141        4.8164021962        0.2801354196
 H          3.2928501246        3.5136215404        0.2004227311
 H          1.4419917653        1.7193675057        0.1033076587
 H         -0.4139562874        1.4221994865       -1.2887251051
 H         -2.8519858158        1.5938667781       -1.2854701980
 H         -6.7844286038       -0.2713794160        1.3634222384
 H         -8.1811118100       -2.2918289146        1.4860603455
 H         -7.5152131646       -4.3377096665        0.2739067981
 H         -5.4463778106       -4.3409323788       -1.0742561782
 H         -4.0576429187       -2.3166556436       -1.2140305695
 H         -6.7284530864        0.5725966980       -1.3665023230
 H         -7.8332993437        2.7669312147       -1.4801153231
 H         -6.8893497748        4.6974190590       -0.2634070974
 H         -4.8365102206        4.4112629966        1.0786952686
 H         -3.7395412269        2.2140935499        1.2086326165
 H         -3.0881008492       -1.8228077477        1.2741681363
 H         -0.6498837220       -1.9981021911        1.2641559018
 H          1.1249073713       -2.5439092401       -0.1434016246
 H          3.5579283633       -2.7698053557       -0.1467907661
  58
  -91.8242266493000       0.215428205577614      !
 N          5.7849630752       -3.9770733902        0.1117190736
 C          5.9690353925       -2.8454355283        0.0587238239
 C          6.2727326081       -1.4685673775       -0.0027797414
 C          7.6655840151       -1.2494515175       -0.0563112196
 N          8.8070338435       -1.1375184670       -0.0996321862
 C          5.3341096975       -0.4752041828       -0.0058330585
 C          5.5849677231        0.9645683944       -0.0510937249
 C          6.7657542943        1.6835634802       -0.1192041929
 C          6.6979582695        3.0711402471       -0.1529478966
 C          5.4797990950        3.7288581461       -0.1182493940
 C          4.2876889965        3.0166693582       -0.0498793914
 C          4.3443311882        1.6392887745       -0.0175238016
 C          3.2851843202        0.6392469463        0.0369947687
 C          1.9181268537        0.7810312518        0.0706194875
 C          1.1090019754       -0.3636070310        0.1006424145
 C         -0.3491543044       -0.2457386445        0.1112445276
 C         -0.9933546358        0.7838457591       -0.5785767118
 C         -2.3670549286        0.8765865442       -0.6043079567
 C         -3.1542028098       -0.0613370514        0.0678416730
 N         -4.5439179215        0.0103600518        0.0256684199
 C         -5.3027199297       -1.1672306473       -0.0258401746
 C         -6.5145488954       -1.2579222216        0.6571937579
 C         -7.2626827496       -2.4175559173        0.5928892955
 C         -6.8141380463       -3.5027221476       -0.1421127568
 C         -5.6086472369       -3.4183857241       -0.8192870007
 C         -4.8574716333       -2.2603781670       -0.7682828696
 C         -5.1876452553        1.2543692964        0.0098434751
 C         -6.3319906063        1.4492971641       -0.7624798767
 C         -6.9691203769        2.6749319730       -0.7631939747
 C         -6.4749053304        3.7235430514       -0.0047284309
 C         -5.3354517855        3.5359491471        0.7603817226
 C         -4.6954179847        2.3119007806        0.7739438652
 C         -2.5161612634       -1.0815586044        0.7780178857
 C         -1.1426878314       -1.1704116096        0.7946017080
 C          1.7164696700       -1.6218045915        0.1021834770
 C          3.0921862144       -1.7728472584        0.0758057564
 C          3.8896235474       -0.6392018774        0.0409073014
 H          7.7242139586        1.1907263972       -0.1489979692
 H          7.6123267190        3.6422423739       -0.2080817318
 H          5.4549092678        4.8082121015       -0.1454128332
 H          3.3401270758        3.5334387100       -0.0234595843
 H          1.4703482052        1.7629699412        0.0936375325
 H         -0.4100589575        1.4980487347       -1.1405133379
 H         -2.8460104071        1.6672166560       -1.1630434969
 H         -6.8617817899       -0.4157202152        1.2376343133
 H         -8.1991419000       -2.4765640612        1.1275567136
 H         -7.4001943478       -4.4078743470       -0.1874878262
 H         -5.2538747067       -4.2571509242       -1.3997816350
 H         -3.9238373425       -2.1920255369       -1.3073942663
 H         -6.7139285037        0.6354648042       -1.3612562263
 H         -7.8538284265        2.8139476119       -1.3667893766
 H         -6.9747840902        4.6800913726       -0.0092534268
 H         -4.9468557393        4.3461228904        1.3596738272
 H         -3.8143559711        2.1632884074        1.3811588904
 H         -3.1119064002       -1.8000906662        1.3214702900
 H         -0.6740959717       -1.9509937038        1.3748923945
 H          1.0967051640       -2.5053601527        0.0975557438
 H          3.5218783855       -2.7618141532        0.0718918813
  58
  -91.8241539221000       0.199470858580429      !
 N          5.8537278740       -2.6047524339        2.9860799482
 C          6.0150321821       -1.8562048048        2.1312381394
 C          6.2920091382       -0.9468646592        1.0878135001
 C          7.6810316206       -0.7627315634        0.9196696578
 N          8.8204125716       -0.6522204956        0.8365510027
 C          5.3346796480       -0.3261727828        0.3360924898
 C          5.5587276411        0.6146288907       -0.7605773597
 C          6.7263567188        1.1157740693       -1.3095874597
 C          6.6320813922        2.0158633310       -2.3641771071
 C          5.4009121731        2.4081483852       -2.8622523223
 C          4.2218636905        1.9097180641       -2.3197597162
 C          4.3050725939        1.0163668900       -1.2726271169
 C          3.2648101651        0.3393517323       -0.5086825305
 C          1.8948021711        0.3977214719       -0.6101755675
 C          1.1107109643       -0.3440582301        0.2828171892
 C         -0.3505396446       -0.2736673403        0.2111310240
 C         -1.0102719616       -0.2575827316       -1.0181624774
 C         -2.3840843547       -0.1795692249       -1.0872533924
 C         -3.1481460760       -0.0953896210        0.0789104391
 N         -4.5360085955        0.0114664397        0.0171744606
 C         -5.2557283738       -0.6695705070       -0.9728875912
 C         -4.8704423170       -1.9490987550       -1.3716819503
 C         -5.5876119523       -2.6196010394       -2.3433750912
 C         -6.6995144531       -2.0330926699       -2.9253350786
 C         -7.0874689321       -0.7631257592       -2.5306146860
 C         -6.3721606576       -0.0809510970       -1.5657313251
 C         -5.2161350377        0.8126979815        0.9447126430
 C         -6.4514699429        0.4138351354        1.4529798913
 C         -7.1208233659        1.2138959179        2.3587035014
 C         -6.5697358773        2.4140438362        2.7768791370
 C         -5.3405020808        2.8124637189        2.2776682322
 C         -4.6672831606        2.0236804198        1.3652958628
 C         -2.4922620505       -0.1125016144        1.3121727121
 C         -1.1197809168       -0.2080405740        1.3734969031
 C          1.7377394061       -1.1354137499        1.2463873209
 C          3.1170814756       -1.2113014654        1.3450555761
 C          3.8922695837       -0.4687253383        0.4675773988
 H          7.6947903387        0.8238533771       -0.9363970406
 H          7.5360020670        2.4145127638       -2.7991179829
 H          5.3554789930        3.1101727494       -3.6816509923
 H          3.2638603289        2.2181197117       -2.7105535550
 H          1.4224203501        1.0291910756       -1.3476259594
 H         -0.4378684486       -0.3265773776       -1.9316566736
 H         -2.8787329649       -0.1717641387       -2.0474221903
 H         -4.0111600113       -2.4135164186       -0.9101626455
 H         -5.2812643270       -3.6116752300       -2.6408095736
 H         -7.2602492625       -2.5623589109       -3.6805261185
 H         -7.9500847550       -0.2960037447       -2.9824552794
 H         -6.6716732998        0.9124447214       -1.2652200097
 H         -6.8786836455       -0.5258455460        1.1346679189
 H         -8.0764223848        0.8933463434        2.7468129129
 H         -7.0948340176        3.0350975475        3.4864202763
 H         -4.9061700141        3.7497355855        2.5928739736
 H         -3.7147707220        2.3420547171        0.9673944307
 H         -3.0720217436       -0.0535313760        2.2214691772
 H         -0.6314151880       -0.2086162593        2.3366941937
 H          1.1307192310       -1.7215334715        1.9197906534
 H          3.5663897974       -1.8410523485        2.0961986105
  58
  -91.8241322164000       0.194941457125293      !
 N          5.8596044936       -3.3057704507       -2.1642414650
 C          6.0220007933       -2.3624441186       -1.5308049195
 C          6.2994589507       -1.2142968142       -0.7580140400
 C          7.6884533901       -1.0156040846       -0.6111312760
 N          8.8284875381       -0.9085544932       -0.5303251112
 C          5.3421369147       -0.3998847063       -0.2217451114
 C          5.5670303149        0.7988972227        0.5851765439
 C          6.7353110901        1.4064063733        1.0120292925
 C          6.6416902603        2.5570822655        1.7855348109
 C          5.4105603374        3.0923695576        2.1260721037
 C          4.2309196151        2.4910264806        1.7020979571
 C          4.3134841300        1.3479773374        0.9352152129
 C          3.2727071863        0.5082829036        0.3557524985
 C          1.9029729586        0.6139803645        0.4072070808
 C          1.1162089444       -0.3512332944       -0.2357232327
 C         -0.3442279685       -0.2620973092       -0.1876196861
 C         -0.9896989552        0.9735035646       -0.2573229638
 C         -2.3631902325        1.0638843143       -0.2140422575
 C         -3.1472355401       -0.0858365196       -0.0889009664
 N         -4.5350140029        0.0020079659       -0.0387657665
 C         -5.2759895521       -0.8981887738        0.7399695536
 C         -4.8038922395       -1.3142219605        1.9842173112
 C         -5.5416389401       -2.1988596719        2.7467910076
 C         -6.7597529636       -2.6738158953        2.2886912550
 C         -7.2355214009       -2.2583240211        1.0558394743
 C         -6.5012859768       -1.3803232548        0.2820379944
 C         -5.2069029720        1.0013732575       -0.7573902048
 C         -4.7844651761        1.3570171216       -2.0376759151
 C         -5.4509994342        2.3421821174       -2.7403016664
 C         -6.5487657886        2.9793396192       -2.1851405677
 C         -6.9759776397        2.6244552961       -0.9159847211
 C         -6.3113482626        1.6460059318       -0.2021840677
 C         -2.5060945031       -1.3252590116       -0.0151306703
 C         -1.1324461484       -1.4078809372       -0.0683503276
 C          1.7440196797       -1.3951915077       -0.9181973786
 C          3.1230474766       -1.5041029167       -0.9812261144
 C          3.8999159248       -0.5504951729       -0.3410792608
 H          7.7038944106        1.0064108289        0.7581679357
 H          7.5461944694        3.0386605238        2.1251338416
 H          5.3657005589        3.9874651405        2.7286521594
 H          3.2729640681        2.9109874019        1.9698428531
 H          1.4339166675        1.4151828306        0.9583328737
 H         -0.4065893576        1.8758075491       -0.3685170180
 H         -2.8425297207        2.0301038553       -0.2701926347
 H         -3.8598729125       -0.9355684701        2.3483589578
 H         -5.1664594577       -2.5121553152        3.7098910250
 H         -7.3345990938       -3.3623848441        2.8891728600
 H         -8.1823053294       -2.6264417909        0.6891899285
 H         -6.8699147419       -1.0632019849       -0.6825725314
 H         -3.9355260237        0.8530837305       -2.4763985341
 H         -5.1156840479        2.6074154363       -3.7321377516
 H         -7.0684750014        3.7466089364       -2.7384605994
 H         -7.8284752065        3.1188653931       -0.4741191096
 H         -6.6401941457        1.3758622320        0.7907193207
 H         -3.0976037372       -2.2240154723        0.0777126475
 H         -0.6596318862       -2.3760575116        0.0031696029
 H          1.1382771072       -2.1263679907       -1.4317388457
 H          3.5714473814       -2.3202849783       -1.5251109501
  58
  -91.8237828567000       0.134694420551148      !
 N          5.8320249492       -3.2153861889        2.2875639631
 C          6.0047701582       -2.2927211469        1.6265476686
 C          6.2954633280       -1.1540532803        0.8450571126
 C          7.6861088400       -0.9382950501        0.7435281669
 N          8.8272098332       -0.8255585746        0.6893974743
 C          5.3468074853       -0.3672271696        0.2544520990
 C          5.5839933104        0.8079269380       -0.5828347851
 C          6.7575312933        1.4325320740       -0.9682389044
 C          6.6761354300        2.5571650968       -1.7804878890
 C          5.4518010042        3.0484461887       -2.2016204197
 C          4.2668688547        2.4291995453       -1.8202865676
 C          4.3370762396        1.3136273242       -1.0128116658
 C          3.2877565277        0.4769728216       -0.4439947101
 C          1.9196857483        0.5599238443       -0.5484758048
 C          1.1198312172       -0.3712820570        0.1293709816
 C         -0.3394516948       -0.2860578582        0.0610542050
 C         -0.9821508883        0.9512500226       -0.0201939342
 C         -2.3552206848        1.0428268929       -0.0519344495
 C         -3.1481852719       -0.1072596655       -0.0009274983
 N         -4.5345844625       -0.0080352330       -0.0044685405
 C         -5.3323178604       -1.0195351079       -0.5572293848
 C         -6.5306372032       -1.3796471303        0.0580817829
 C         -7.3243935193       -2.3683519189       -0.4898873646
 C         -6.9353309195       -3.0170478411       -1.6503230611
 C         -5.7456262916       -2.6627847603       -2.2652276943
 C         -4.9492592529       -1.6686638286       -1.7301189858
 C         -5.1609815578        1.1017199925        0.5857685038
 C         -6.2702287227        1.6856894371       -0.0232129356
 C         -6.8908620230        2.7728657778        0.5613567682
 C         -6.4142036888        3.2954313007        1.7524473944
 C         -5.3123011528        2.7173762847        2.3613823060
 C         -4.6895042000        1.6255098639        1.7883851241
 C         -2.5111518745       -1.3494657453        0.0642476398
 C         -1.1368339950       -1.4321223407        0.0945347321
 C          1.7389224161       -1.3676938490        0.8881798570
 C          3.1161457288       -1.4628094180        0.9921228411
 C          3.9039968151       -0.5363768604        0.3261461008
 H          7.7207548629        1.0666636681       -0.6508127761
 H          7.5847827153        3.0534683493       -2.0860044858
 H          5.4163271562        3.9242748222       -2.8325323996
 H          3.3143015251        2.8164708050       -2.1493623342
 H          1.4642803203        1.3228141417       -1.1614183907
 H         -0.3980724134        1.8593604175       -0.0330403463
 H         -2.8285496240        2.0115364360       -0.1146745242
 H         -6.8309575886       -0.8812332747        0.9681526343
 H         -8.2489836307       -2.6393014211       -0.0019758975
 H         -7.5556653695       -3.7924403701       -2.0731876756
 H         -5.4385007873       -3.1585016257       -3.1742887510
 H         -4.0285566220       -1.3852835671       -2.2189297489
 H         -6.6377348267        1.2816854896       -0.9552233680
 H         -7.7472775948        3.2200534308        0.0788261681
 H         -6.8988731973        4.1475176353        2.2040659391
 H         -4.9388297798        3.1141010088        3.2938336887
 H         -3.8360060974        1.1692638008        2.2683854571
 H         -3.1049355970       -2.2505862863        0.1036981794
 H         -0.6724429101       -2.4061973214        0.1297039461
 H          1.1276497710       -2.0707146403        1.4330763788
 H          3.5544661781       -2.2430482250        1.5936716665
