99
 energy: -139.814901900995 gnorm: 0.000062610007 xtb: 6.7.1 (edcfbbe)
C           -7.89352294302912        0.03208991522192        1.72166082219193
C           -6.47393120370989        0.18916547945226        1.27135746530231
C           -5.61427284373298        1.05348411881643        1.93653700523698
C           -4.29403215902164        1.20531308973273        1.55219735504838
C           -3.43994000224787        2.18230549443342        2.30629567251055
C           -3.77767364871432        0.49089007413209        0.45145799129830
B           -2.28621307495038        0.71870557478143        0.01571557426746
C           -2.00687540789284        1.18321496257598       -1.47038082299867
C           -3.01922629361287        1.90134814235356       -2.11932712520117
C           -2.85523833541699        2.47278474742345       -3.36618911386799
C           -1.64098583999247        2.31872555368358       -4.01953739309223
C           -1.39670619694721        2.91769499248100       -5.37270090298445
F           -0.36758180421517        3.78841458120423       -5.36127688925624
F           -2.44995570043774        3.58730823256691       -5.85983153533138
F           -1.07981359123787        1.98753339341509       -6.29392289190005
C           -0.61603654882036        1.59918893430984       -3.42632054405485
C           -0.78670719008928        1.03884767003784       -2.16356088987335
N            0.31810944524549        0.37779161180876       -1.61189155080532
C            0.38652283362008       -0.91950337567624       -1.14692095543840
C           -0.52408747702251       -1.95533186719038       -1.25923762593020
C           -0.17766087278128       -3.18430754819746       -0.73558751387856
C            1.05079949660447       -3.42398136314507       -0.10718989444054
C            1.32793976471614       -4.80851504083553        0.46078755843379
C            1.26576611078411       -5.84273330763227       -0.67202691615761
C            2.70652146327517       -4.90839906682401        1.11964032007563
C            0.27049247026275       -5.13792699511249        1.52374703891571
C            1.97324338882766       -2.39294704566922       -0.04602980758185
C            1.65340117958816       -1.15040485847320       -0.57434523688322
C            2.39124963630108        0.07317975950621       -0.71172978502176
C            3.66605248221655        0.45720836261321       -0.31917288588293
C            4.10936061466433        1.74192480051070       -0.58492979581552
C            5.48316308012849        2.24106145079719       -0.16095188571391
C            6.26538109477536        2.69514750912895       -1.40115031314386
C            6.30752543508364        1.16372751226285        0.54950725888483
C            5.30779083675890        3.42148092932717        0.80542229503697
C            3.25116068091329        2.61857547801429       -1.26185419831107
C            1.97970061254631        2.26237738022768       -1.66443063420678
C            1.54277560182716        0.97876749196703       -1.37918357149268
C           -1.09249114033732        0.59442597102015        1.02046297854340
C           -0.91212992282354       -0.59640323371078        1.75042418728150
C           -1.96925734091767       -1.66148799981764        1.76536852400063
C            0.24883090248855       -0.80147106483390        2.47530252151705
C            1.24932364965765        0.15760756573076        2.53650399011989
C            2.51883877494948       -0.09191243716439        3.29012454920969
C            1.02470583579011        1.37111153952981        1.90884328030349
C           -0.12401168469314        1.60098520368939        1.16773755425126
C           -0.33273540030839        2.98501264647930        0.62357090696275
C           -4.65571842863942       -0.37082521900298       -0.22609555245685
C           -4.20893101992702       -1.21804121746486       -1.38225147863832
C           -5.97249149737757       -0.51489981450451        0.19171236170242
H           -8.38220851936433        1.00301818315514        1.78905739596842
H           -8.45434444258664       -0.59516857907571        1.03323280896247
H           -7.92595954572583       -0.42476117002940        2.71070327473094
H           -5.98948745767194        1.62109539538356        2.77721467330604
H           -4.00572636351599        2.63972698683690        3.11479908719919
H           -3.08706031940692        2.97015072109329        1.64379622453657
H           -2.56856437956294        1.68630493507072        2.72772384703710
H           -3.96386373906172        2.02560435689403       -1.61067827048452
H           -3.65549526822963        3.02988817595153       -3.82736813704399
H            0.32325297701105        1.46888110678135       -3.94348038418043
H           -1.47187615826280       -1.81295176663868       -1.75339377728778
H           -0.89197621405689       -3.98910162261466       -0.82428779725458
H            0.28106797067684       -5.87137059847196       -1.12995663816935
H            1.99282514894324       -5.59783385899697       -1.44346764312039
H            1.49095069385713       -6.83544559644154       -0.28745800595785
H            2.79988838503711       -4.19983675788326        1.93944379832189
H            2.84451286126749       -5.90965768299897        1.52331688973865
H            3.49928231485693       -4.72561058293807        0.39814925759165
H            0.31456520781223       -4.41115722978679        2.33224516916871
H           -0.73214773016101       -5.12249559289387        1.10579757723017
H            0.45111056209619       -6.12697170077046        1.94016058743617
H            2.94647409721238       -2.52972234037882        0.39456366125980
H            4.28434289907424       -0.26056857763594        0.19331754331190
H            7.25914741892092        3.03356720052912       -1.11493729070869
H            5.76331504261515        3.51187293099474       -1.91183750335647
H            6.37002425305195        1.86891179792648       -2.10125399889714
H            7.27817287218191        1.57218696897626        0.82403382437877
H            5.81621072833614        0.82894659671235        1.46034742684692
H            6.47473399111587        0.30802962756808       -0.10041744604389
H            4.74030902246154        3.11011852538185        1.68042992126434
H            4.77972439033501        4.24525244031895        0.33319424120964
H            6.27873146396076        3.78445795928845        1.13624834435421
H            3.58489950537802        3.62114830114000       -1.48271227895867
H            1.35057196858547        2.97220573815249       -2.18135881792031
H           -2.85552699185248       -1.30009739443205        2.28600657003495
H           -2.26305862069884       -1.93858336414900        0.75817953287091
H           -1.60710095235210       -2.54996957251373        2.27660862301863
H            0.38442533556667       -1.73775380808029        2.99877658437983
H            2.74297267238650       -1.15536626335106        3.32780834678301
H            2.42922471265639        0.27216165102840        4.31448955370138
H            3.34825852506665        0.42997579949636        2.81796444389072
H            1.76646685094736        2.15435296147432        1.98202994883784
H           -1.08852153848754        3.00897613125260       -0.15611246830142
H           -0.66085846434459        3.64003259648885        1.43254402036729
H            0.59962684137012        3.38677217693330        0.23305522275850
H           -3.84937420439110       -2.18226239262466       -1.01922439580821
H           -3.41039550884587       -0.74109289159049       -1.94201177800807
H           -5.04145217241336       -1.41008206432704       -2.05628499550959
H           -6.62052094404020       -1.19408456963388       -0.34534527407567
