99
 energy: -139.814907173018 gnorm: 0.000123097572 xtb: 6.7.1 (edcfbbe)
C           -7.42559362406910       -2.45640026302901        1.58244057644418
C           -6.04699909883347       -1.92402550787357        1.34003381736380
C           -5.18604542574819       -1.68642046579975        2.40351613251942
C           -3.90597314787854       -1.19946439416954        2.20874689016421
C           -3.04922565984080       -0.94422087801842        3.41434068568348
C           -3.43501069627534       -0.91096223411584        0.91115785447982
B           -1.99274273765920       -0.31669866465555        0.72926609762119
C           -1.84854381707853        1.06549969341104       -0.02648024418614
C           -2.94236150460664        1.93919565205034        0.01926888052561
C           -2.90186229674684        3.22217750405317       -0.49071838002841
C           -1.73445743000998        3.66722272404264       -1.09448138602830
C           -1.62331894203068        5.05538339280064       -1.65140021558232
F           -0.76966506835252        5.81753511641082       -0.93662243610973
F           -2.78815431422252        5.71760782506247       -1.67220911630129
F           -1.15666391691799        5.06723866203134       -2.91339013437503
C           -0.63153198510398        2.83287330902849       -1.17947626975449
C           -0.67790407373687        1.54646684401173       -0.64940103736795
N            0.49881531104419        0.79026770539697       -0.72517359245837
C            0.67214768995396       -0.45842435057716       -1.28560525266234
C           -0.18637405774580       -1.21097683801317       -2.06753319462675
C            0.26413562781448       -2.42579318944369       -2.54273702659637
C            1.54735581051684       -2.91844967380342       -2.27452266690185
C            1.94094422627417       -4.28225359382731       -2.82347877516272
C            1.85457379941941       -4.25597803218800       -4.35596387265404
C            3.36656279780068       -4.68357184812074       -2.43461930065408
C            0.98263887747199       -5.34455927327840       -2.26694556579002
C            2.41432946136623       -2.13246874024685       -1.53410982647745
C            1.98870196612779       -0.90338406507867       -1.05080672770020
C            2.64577337272155        0.13943564743303       -0.31488034938992
C            3.92107826262016        0.26048852393799        0.21946690419489
C            4.27172121552481        1.40920007233227        0.90855488674175
C            5.64193456890393        1.60034616779063        1.54245386263864
C            6.31662616158110        2.83593712656045        0.93075295213271
C            6.56418439649086        0.39788152020258        1.32274166413830
C            5.46983239758191        1.79637190041440        3.05564224520752
C            3.32101176995473        2.43092441315024        1.03249402520028
C            2.04573077174371        2.33607583453097        0.51265117543615
C            1.70229067476423        1.17450625159155       -0.16021619936493
C           -0.72399327918200       -0.99411484750785        1.34657437389329
C           -0.43201815370667       -2.33981065719649        1.04618194262085
C           -1.43052644765080       -3.20730522206129        0.33726892559756
C            0.78439675217713       -2.88683326408847        1.41067070634856
C            1.73743476485003       -2.15254276421482        2.10469104292217
C            3.07152205014274       -2.75084944373392        2.42635667284441
C            1.40904287030104       -0.86631226637561        2.49246019007422
C            0.19966780635758       -0.28849531475839        2.13332010231095
C           -0.11701090169754        1.06450366090318        2.70265841382569
C           -4.31502476388742       -1.14017854914906       -0.15910487323302
C           -3.91012313902718       -0.91659794710449       -1.58748725617595
C           -5.58965700034400       -1.64459404838345        0.06513302702191
H           -8.01032659618166       -1.74088317473047        2.16020414519992
H           -7.94103070336074       -2.64734496159905        0.64451271290055
H           -7.38030304968316       -3.38370048133061        2.15208348623299
H           -5.52794288103328       -1.88943674991140        3.40930927399684
H           -3.57829637350370       -1.21914869984667        4.32402530580379
H           -2.78204797029630        0.10882276119327        3.47581422076020
H           -2.12751526617317       -1.51907234358092        3.35998055781950
H           -3.85138255407243        1.59548964263160        0.49044577125314
H           -3.76223734775338        3.86944217504390       -0.42514685598102
H            0.27172363446087        3.17681392837855       -1.66165348011433
H           -1.17453286496427       -0.85477119940021       -2.31146979726050
H           -0.41001391266660       -3.01033510602987       -3.15067523301526
H            0.84311232564347       -4.04732053319142       -4.69297904916821
H            2.51187484630619       -3.48649495066779       -4.75543883479668
H            2.15832004711176       -5.21704935451143       -4.76603211260361
H            3.47834835090628       -4.72802543160820       -1.35364263092774
H            3.58828105921228       -5.67048856858685       -2.83626011808430
H            4.09464116457922       -3.98542031145634       -2.84085441656777
H            1.04265111160051       -5.36906397890517       -1.18087638165366
H           -0.04649112501346       -5.13823188415925       -2.54714119912940
H            1.24911587419305       -6.32823595239206       -2.64849820491008
H            3.42508284616428       -2.44432600400929       -1.33040057892111
H            4.61360595562337       -0.55394169795539        0.08956981300801
H            7.30703807864892        2.97407544170908        1.35973855635398
H            5.73835194587190        3.73692234535124        1.11489610058830
H            6.42031096030682        2.71206685491442       -0.14521714586204
H            7.52515315890782        0.58640079845460        1.79752488966772
H            6.14367893254444       -0.50366123530669        1.76242144344326
H            6.74094304865495        0.22949512459738        0.26301937948975
H            4.97646690099434        0.93028758327372        3.49255103376989
H            4.87203226271732        2.67613605066186        3.27697672956060
H            6.44065432743368        1.91630824185318        3.53215654375228
H            3.58236659640195        3.33673204363056        1.55841234283599
H            1.34239723996155        3.14648872614362        0.63718549994035
H           -0.98825412733060       -4.16764573731652        0.08416818584089
H           -2.29419301599381       -3.38246551424398        0.97799702882092
H           -1.78158632111780       -2.73757846823550       -0.57575681782183
H            1.00518897661260       -3.91058020838174        1.14185516524352
H            3.61308969294818       -2.96205020757862        1.50485856364172
H            2.95409342338093       -3.68966099680092        2.96643826935312
H            3.66719757338465       -2.07065008117225        3.03003124674935
H            2.11095303343761       -0.28742011286163        3.07657144248233
H           -0.92848702195698        1.55281297557742        2.17084535236987
H           -0.41676790513458        0.95064958162005        3.74591464415602
H            0.76283721527642        1.70377822001482        2.68141868616571
H           -4.77754087616530       -0.65893016194839       -2.19207163452027
H           -3.48089766314195       -1.83133682256182       -1.99961600368753
H           -3.17597480710271       -0.12171813156166       -1.67499701451066
H           -6.23933215555676       -1.81994062294958       -0.78152711051857
