  99
       -139.81488265
 C         -7.4310273448       -2.4398774953        1.5910228643
 C         -6.0493335941       -1.9167343302        1.3462896433
 C         -5.1868516428       -1.6797162737        2.4085970884
 C         -3.9047602913       -1.1986144776        2.2120588978
 C         -3.0471306837       -0.9438850543        3.4171028336
 C         -3.4334044606       -0.9148785253        0.9135047324
 B         -1.9919716795       -0.3194630913        0.7291256379
 C         -1.8502589932        1.0602343711       -0.0317640327
 C         -2.9453608104        1.9325862435        0.0099501667
 C         -2.9045647282        3.2151187000       -0.5009648233
 C         -1.7358063738        3.6612699833       -1.1016517172
 C         -1.6257907351        5.0531336622       -1.6494227031
 F         -0.8556216165        5.8404949704       -0.8690628454
 F         -2.8064092767        5.6777261708       -1.7595669200
 F         -1.0631384001        5.0844945242       -2.8705293570
 C         -0.6318444653        2.8281510102       -1.1829647121
 C         -0.6790183722        1.5417158420       -0.6529629835
 N          0.4976477506        0.7853119484       -0.7273508934
 C          0.6711431798       -0.4620324622       -1.2906763804
 C         -0.1867606535       -1.2123874068       -2.0753807020
 C          0.2644969344       -2.4253747463       -2.5546043379
 C          1.5478248356       -2.9183201927       -2.2876081270
 C          1.9432959403       -4.2786343433       -2.8436621583
 C          1.8553936142       -4.2439375210       -4.3759519905
 C          3.3701699675       -4.6789924528       -2.4584941270
 C          0.9876504188       -5.3456579687       -2.2917574262
 C          2.4137755520       -2.1350753757       -1.5431222394
 C          1.9874957899       -0.9076977706       -1.0560955363
 C          2.6440653785        0.1332792116       -0.3171826430
 C          3.9189524354        0.2530252370        0.2182746813
 C          4.2689239176        1.3993666668        0.9115308138
 C          5.6375900725        1.5868424110        1.5497407989
 C          6.3176608913        2.8207888435        0.9408435819
 C          6.5571816916        0.3817468153        1.3332334220
 C          5.4606514591        1.7824230854        3.0624448462
 C          3.3187345068        2.4214591073        1.0360910445
 C          2.0441992240        2.3285340143        0.5140608133
 C          1.7006794755        1.1681828540       -0.1608291783
 C         -0.7211789335       -0.9893889598        1.3507800492
 C         -0.4220511111       -2.3340738240        1.0538888132
 C         -1.4140206791       -3.2063599389        0.3416701019
 C          0.7947073153       -2.8758908236        1.4255143164
 C          1.7407034514       -2.1371507741        2.1241161266
 C          3.0777619201       -2.7261337642        2.4502085354
 C          1.4058125874       -0.8507671053        2.5064491572
 C          0.1964557620       -0.2780559638        2.1395045249
 C         -0.1274347084        1.0755516626        2.7034496476
 C         -4.3140385196       -1.1463875132       -0.1558591081
 C         -3.9075917796       -0.9312851032       -1.5850312595
 C         -5.5905075088       -1.6451828782        0.0702067297
 H         -8.0107172801       -1.7191507170        2.1673859033
 H         -7.9483699652       -2.6298537374        0.6539526218
 H         -7.3912804409       -3.3659731651        2.1630063330
 H         -5.5291115487       -1.8785209922        3.4150955647
 H         -3.5737308688       -1.2238735933        4.3266798310
 H         -2.7846314027        0.1101920420        3.4815801107
 H         -2.1230159241       -1.5144213968        3.3596179904
 H         -3.8553780790        1.5882970315        0.4787459659
 H         -3.7659750560        3.8614126016       -0.4391543639
 H          0.2724815825        3.1722146333       -1.6629519603
 H         -1.1748103064       -0.8557278997       -2.3190619848
 H         -0.4091113090       -3.0079958667       -3.1649921154
 H          0.8423489629       -4.0397675419       -4.7108819534
 H          2.5074050604       -3.4679058822       -4.7713955252
 H          2.1648805592       -5.2005462446       -4.7920130570
 H          3.4835462943       -4.7283297297       -1.3779173715
 H          3.5932935074       -5.6635004343       -2.8652169048
 H          4.0962047880       -3.9773955798       -2.8624536004
 H          1.0513799634       -5.3781300439       -1.2060516266
 H         -0.0426050045       -5.1379064810       -2.5668627404
 H          1.2535509180       -6.3262447192       -2.6816092625
 H          3.4242196339       -2.4478749312       -1.3394228981
 H          4.6123104466       -0.5602401973        0.0853739354
 H          7.3057476075        2.9578924884        1.3754938697
 H          5.7395076383        3.7227428551        1.1206938749
 H          6.4274626848        2.6957357319       -0.1344007482
 H          7.5166590238        0.5670177812        1.8122770006
 H          6.1317515728       -0.5185241716        1.7708007903
 H          6.7382369945        0.2133965158        0.2742133484
 H          4.9614861286        0.9181609517        3.4963196034
 H          4.8662560333        2.6648210346        3.2823843640
 H          6.4301923289        1.8972841520        3.5428147983
 H          3.5800453933        3.3261246512        1.5640213722
 H          1.3413024209        3.1393284607        0.6386381494
 H         -0.9675147790       -4.1663713452        0.0940508096
 H         -2.2813035609       -3.3816066337        0.9777884834
 H         -1.7603942726       -2.7399316441       -0.5750484720
 H          1.0205079376       -3.8992469610        1.1593393554
 H          3.6719073750       -2.8107826240        1.5404431918
 H          2.9703143075       -3.7238925906        2.8728602736
 H          3.6178667600       -2.0998248510        3.1559482563
 H          2.1023956443       -0.2682332839        3.0932917872
 H         -0.9390141125        1.5590284536        2.1674101020
 H         -0.4299662230        0.9641146868        3.7461403017
 H          0.7500427527        1.7180743667        2.6828963609
 H         -4.7736875839       -0.6727873913       -2.1912956760
 H         -3.4819335940       -1.8500935026       -1.9922451554
 H         -3.1700569831       -0.1397453250       -1.6756428901
 H         -6.2415083429       -1.8195407324       -0.7756541278
