58
 energy: -100.627587239526 gnorm: 0.000065318820 xtb: 6.7.1 (edcfbbe)
O            5.46746912335559        2.74446089841902        0.18117485134835
S            5.14134619663126        1.48904387892817       -0.45655274450012
O            5.58085084040256        1.34049999830517       -1.82066970017161
C            5.82774101404601        0.16110804956676        0.53645252956525
C            6.85642078022052        0.41498933854432        1.42606014634674
C            7.37291506101387       -0.62575502460236        2.18476977527074
C            6.85262853200994       -1.90546876445559        2.05943270234020
C            5.81395589367922       -2.15269270055103        1.17311129746843
C            5.31106371986226       -1.11383196158168        0.41014746673989
S            3.96918144178794       -1.40545498702294       -0.74468968894390
O            3.29293126439636       -2.62115199652815       -0.35230900766725
O            4.47714113297169       -1.37197706849978       -2.09215724757047
C            2.85408150244302       -0.02890855975204       -0.47857005121789
C            1.49645761160998       -0.25116806520547       -0.39464032992763
C            0.61680393961654        0.81914831780107       -0.19205978064548
C           -0.82624272996832        0.59465949549959       -0.11489045004943
C           -1.72786413303533        1.53326531403133       -0.62427201933152
C           -3.08659397200789        1.32010555434929       -0.56634323054972
C           -3.60326681097636        0.16016547527371        0.02146213872377
N           -4.97212394525444       -0.05567940877962        0.08618872138607
C           -5.49331195985522       -1.35893869016694        0.02889720356931
C           -4.95053390071421       -2.30200214804397       -0.84289880900262
C           -5.47320795392318       -3.58021695980848       -0.89638210616283
C           -6.54544485500867       -3.93390980866584       -0.09302726698109
C           -7.09206351674559       -2.99773819162659        0.76995079969462
C           -6.57110787818030       -1.71933825712016        0.83617372127548
C           -5.86075559743433        1.02608321387161        0.20339573316422
C           -5.55961127962602        2.10231767501279        1.03706296397006
C           -6.44172618579110        3.15994581882881        1.15192781136712
C           -7.63591217136609        3.15691583731452        0.44899151052299
C           -7.94190292341923        2.08617873215840       -0.37556466118060
C           -7.06237790533279        1.02763178956036       -0.50307816492216
C           -2.70342669287291       -0.77729899594546        0.54115403758220
C           -1.34528287932964       -0.56594676444132        0.46543238826270
C            1.15799909578271        2.10389885741391       -0.06344811942773
C            2.52214057031387        2.31690045911479       -0.13782804211790
C            3.37402673076572        1.24608624284283       -0.35418367681296
H            7.22580372248270        1.42498845038611        1.50942843235586
H            8.17851533510724       -0.43368917923522        2.87620679310721
H            7.25139122384001       -2.71299495166670        2.65347231346897
H            5.37568704754946       -3.13184441262029        1.06071544292050
H            1.14042170033920       -1.26338817505113       -0.50272004800747
H           -1.35631824450542        2.42143274455170       -1.11171970051006
H           -3.76382189722477        2.04682070232170       -0.98934465778002
H           -4.12206425610251       -2.02518694756693       -1.47854483584524
H           -5.04572618248266       -4.30178275010174       -1.57725555486140
H           -6.95290326252116       -4.93259451251629       -0.14036008995741
H           -7.92563236572150       -3.26635546533096        1.40226096037375
H           -6.99444411724903       -0.99227580695576        1.51368614432964
H           -4.63486476132231        2.09981723607512        1.59538668024512
H           -6.19899446120129        3.98710001147838        1.80288357743348
H           -8.32458880368431        3.98291993084522        0.54415683123064
H           -8.86905063014480        2.07745987249192       -0.92982866381731
H           -7.29952118619396        0.19636723825322       -1.15095333683225
H           -3.08320533466572       -1.67063816344220        1.01396389816906
H           -0.67442621782377       -1.29342755214485        0.89616751103045
H            0.50245952691828        2.94050616653022        0.12063914805874
H            2.95224571462561        3.29923137304639       -0.02152665169705
