58
 energy: -100.546889154551 gnorm: 0.000059710317 xtb: 6.7.1 (edcfbbe)
O            5.51856398515380        2.59763601452585       -0.56052337641594
S            5.16560180976338        1.22373895247193       -0.87635256574304
O            5.68353372656823        0.73456256914255       -2.13741711934390
C            5.74914052508114        0.18046393182989        0.44842955641099
C            6.66399001449596        0.65283641862525        1.37739122697365
C            7.06838658640436       -0.16344773014862        2.41840010991411
C            6.54193312056312       -1.44694967394867        2.54723508882319
C            5.60801935632741       -1.90814008777586        1.63476834364523
C            5.22203029929202       -1.09768661618801        0.58087425090193
S            3.96588120188802       -1.62813244196680       -0.57050869995840
O            3.25436657550130       -2.74727181996697        0.02371323650350
O            4.54569537738386       -1.89622611032253       -1.86719508651099
C            2.86903241164357       -0.23249984725578       -0.61892111850978
C            1.52924328278615       -0.41077058846852       -0.42387999548288
C            0.63162747702328        0.68618487012059       -0.41634479162107
C           -0.77393115701502        0.50157125646641       -0.27656372627230
C           -1.70808484709179        1.51375571781238       -0.64861387803376
C           -3.05372558859497        1.33703957131932       -0.52189358121960
C           -3.58325210271576        0.12832499338188       -0.01140681706802
N           -4.94541421273820       -0.05720196805750        0.11368043363006
C           -5.49536716650254       -1.32665366981813       -0.05949241334305
C           -4.97271285190684       -2.19667493126116       -1.02428666273203
C           -5.51600355595560       -3.45471197105471       -1.18517551631522
C           -6.57958431466396       -3.86685031144671       -0.39370643802102
C           -7.10130082302839       -3.00768163239182        0.56438942525198
C           -6.56951403838562       -1.74622086383378        0.73483770772541
C           -5.77709875442182        1.02096468514350        0.41081351004014
C           -5.34200467117913        2.03159458300260        1.27723540235796
C           -6.16783673268411        3.09994619544599        1.56048802960934
C           -7.43109246787714        3.18211347382947        0.99039204567043
C           -7.86716152119687        2.18255654441319        0.13071017476563
C           -7.05301280512422        1.10758833232272       -0.16015723899123
C           -2.67302321259693       -0.88822640419596        0.36581003930566
C           -1.32843334644347       -0.70725390542951        0.23996030508468
C            1.21962838568805        1.98919062554965       -0.55378598781827
C            2.56643102711622        2.15788213734916       -0.70364427171272
C            3.42358445336923        1.05069563626778       -0.77047790059703
H            7.03741792777951        1.65784535981320        1.25580602314578
H            7.79107816962688        0.19747368183008        3.13359056881526
H            6.85617954635671       -2.08081744631370        3.36146764952705
H            5.16091160542596       -2.88678276218426        1.71572348369649
H            1.18712364119263       -1.42701266943591       -0.31266862846209
H           -1.34456658222828        2.42465185558058       -1.09385383879308
H           -3.73394437282494        2.10412743985282       -0.86127636438987
H           -4.16257597884707       -1.86410981209846       -1.65570905072205
H           -5.11415567210223       -4.11537751845011       -1.93823592201178
H           -6.99916573624474       -4.85252033995082       -0.52275165128634
H           -7.92138339651179       -3.32905291890157        1.18816806880431
H           -6.95751890660965       -1.08701832693440        1.49661768895175
H           -4.37014495408432        1.95110582361499        1.74028512176925
H           -5.82959578694424        3.86927195424272        2.23775689628756
H           -8.07243707207682        4.02027113558274        1.21472149103471
H           -8.84468813079384        2.24844504669005       -0.32220306826826
H           -7.38111632649729        0.34326958259304       -0.84830148409630
H           -3.05675446625907       -1.79693116860163        0.80540629323778
H           -0.66497081256645       -1.48334434034172        0.58410120516962
H            0.59135155114207        2.86225553811289       -0.49519224666000
H            3.01421240317735        3.13692818348882       -0.77708861647407
