58
 energy: -100.547096455184 gnorm: 0.000060753746 xtb: 6.7.1 (edcfbbe)
O            5.50737154085348       -2.70552795904080       -0.40483563442409
S            5.15509712005140       -1.52568726402409        0.36686606091043
O            5.65316125576542       -1.51290336453902        1.72682633257542
C            5.76389639570347       -0.09115634410540       -0.50189740898797
C            6.68721496251069       -0.21861889949979       -1.52869086180130
C            7.10769293088647        0.90552329054736       -2.21646048092425
C            6.58716812934346        2.15779102955154       -1.89684273392301
C            5.64471789316592        2.28059741539450       -0.88994175289029
C            5.24400703651112        1.15753338248972       -0.18638359703265
S            3.97268446678988        1.26519272207565        1.06088394245615
O            3.27219973292007        2.52584987259298        0.88356963909970
O            4.53431889741079        1.06324074650489        2.37749090901998
C            2.86747924523539       -0.05510671595062        0.62221419839934
C            1.52708024801131        0.18331555322686        0.52014494491808
C            0.62486730038149       -0.82929968530546        0.10475038741224
C           -0.77867180376083       -0.59867622074933        0.03972819666151
C           -1.65483655393963       -1.45281706070589       -0.69488451005324
C           -3.00014357354951       -1.23963397965502       -0.74218614018503
C           -3.58701525107849       -0.14415255599483       -0.06641093537441
N           -4.95074027076721        0.07008274204067       -0.10840848355808
C           -5.82554164898062       -1.01370796029209       -0.15202444378068
C           -7.00704960316506       -0.94170185270392       -0.90047381806082
C           -7.86254530952299       -2.02302744173098       -0.94448829421628
C           -7.56068127606376       -3.18707252042925       -0.25010223047770
C           -6.39144465598820       -3.26307318207821        0.49467543278009
C           -5.52616325684520       -2.18979396614159        0.54728963556088
C           -5.45359329287801        1.36989394640086       -0.10303865737143
C           -4.77393084438776        2.39085100076117       -0.77913836253426
C           -5.27347963676743        3.67687554014451       -0.76805003116631
C           -6.44799633145081        3.96854074994524       -0.08762712819057
C           -7.12487355589072        2.96004203009998        0.58547771770099
C           -6.63781971452369        1.66933717538965        0.58184526954265
C           -2.73483702481085        0.72384107470847        0.65724401494449
C           -1.39168300839343        0.50098613711339        0.71203916822637
C            1.21019167124749       -2.09140523824006       -0.25127763347371
C            2.55476928791601       -2.31274571665023       -0.16117016219514
C            3.41604399273679       -1.30950839544511        0.30400648887165
H            7.05402439047682       -1.20627469733826       -1.76160272064821
H            7.83753165294110        0.80988592765537       -3.00520413080702
H            6.91311418754405        3.03262661007680       -2.43717637273977
H            5.20177316988051        3.22955638022079       -0.63033172804260
H            1.19567718779038        1.18738977428020        0.73098830454506
H           -1.23981820273913       -2.26460092867755       -1.26796859359114
H           -3.62896168926488       -1.88122304420241       -1.34163061695844
H           -7.22801469966755       -0.04640025080104       -1.46159943593421
H           -8.76625664561248       -1.96402350909806       -1.53170031081226
H           -8.23370425045534       -4.02954482075941       -0.28794529789544
H           -6.15854012000862       -4.16174768781987        1.04529230048291
H           -4.63028827776552       -2.23628609032864        1.14789604311846
H           -3.87506938064013        2.15628413252344       -1.32909472205893
H           -4.74936913799270        4.45593895697274       -1.30042430711189
H           -6.83354043735278        4.97630601985715       -0.08177076150286
H           -8.03245044430539        3.18565315560025        1.12434934560532
H           -7.14933996003664        0.89031540429026        1.12670584224860
H           -3.17066557957954        1.53926372837498        1.21538419959597
H           -0.78219443003601        1.14947564562260        1.31939065428124
H            0.57446777419926       -2.90074699992152       -0.56866945683208
H            2.99603122474598       -3.25987839064612       -0.43046788535553
