58
 energy: -100.627252828197 gnorm: 0.000108678052 xtb: 6.7.1 (edcfbbe)
O            6.47147811217501       -0.70722841869426       -2.71851157112787
S            6.09842976643415       -1.19940069628643       -1.41189993717233
O            6.41880920528885       -2.57746280015022       -1.14023102716433
C            6.86935973771458       -0.15202981586442       -0.17560455723152
C            7.95815683526372        0.63499648048414       -0.50611625852330
C            8.53722826749423        1.43884704114751        0.46544990772275
C            8.02046537962121        1.45930257188010        1.75251618891842
C            6.92064119619652        0.67724870003031        2.07558628353144
C            6.35407415800449       -0.13096717457553        1.10602321751640
S            4.92590964034928       -1.14569230343991        1.49474293867773
O            4.29069761870197       -0.59770563087450        2.67164299453154
O            5.32155370791687       -2.52818867179895        1.57804311470656
C            3.82639721526492       -0.91039002475569        0.09942676876999
C            2.48064443618216       -0.70154463445968        0.31255861210177
C            1.61596136422262       -0.51222776471566       -0.77187942836290
C            0.18025381148241       -0.32337907173038       -0.55788866648470
C           -0.56343269157715        0.54225693428760       -1.36346586431992
C           -1.91632344272701        0.70944096486008       -1.16796762789807
C           -2.58450454507076        0.00103273455554       -0.16383878092366
N           -3.95220621231503        0.15179252884324        0.02565785335419
C           -4.73327267895010       -0.93471639668351        0.45191381987546
C           -4.49539389430871       -2.21492194608979       -0.04696194410362
C           -5.27335426760103       -3.27842212509724        0.36929540379280
C           -6.30179541165515       -3.08229160357936        1.27707036007287
C           -6.54490475432266       -1.81087273397463        1.77138511282296
C           -5.76670259213473       -0.74247097128495        1.36747734896514
C           -4.57441628082236        1.38621828689574       -0.22040670621808
C           -3.95000644876515        2.57799882894736        0.14595890913058
C           -4.56926974881773        3.78954814104504       -0.09569169820367
C           -5.81865904328453        3.83207191295545       -0.69357196398624
C           -6.44575965010968        2.64978245210123       -1.05264028700384
C           -5.83045782399759        1.43365260942674       -0.82336823275356
C           -1.84252594680648       -0.86661813308361        0.64470686081579
C           -0.48703964698802       -1.01703332238175        0.45464765402915
C            2.15963007186717       -0.51647169028086       -2.06123322612253
C            3.51273106645979       -0.71541541293033       -2.26599868607597
C            4.34808537119655       -0.92349927607733       -1.18082946536465
H            8.32379014280910        0.60617702649990       -1.52049240716391
H            9.38899248418518        2.05126859328070        0.21364225932063
H            8.46871941194731        2.08755920655515        2.50638213922249
H            6.48272547190706        0.68186922788370        3.06131234860061
H            2.12628587446871       -0.66586140410130        1.33066532966420
H           -0.07051698164437        1.10746801983777       -2.13932923843099
H           -2.47266962595831        1.38472030097625       -1.80062306059107
H           -3.70160821388477       -2.36804081011759       -0.76349385948101
H           -5.08116231572315       -4.26523582416918       -0.02603491615184
H           -6.91038769674306       -3.91490642690573        1.59648539037092
H           -7.34239910690783       -1.65033896482880        2.48212799320778
H           -5.95348882765589        0.24701371659847        1.75857403279178
H           -2.98171637757312        2.54609332848753        0.62383212868610
H           -4.07665372913953        4.70617665161309        0.19430078699994
H           -6.30101280811308        4.78036197240340       -0.87728750556243
H           -7.41828715332810        2.67399558460716       -1.52231813966152
H           -6.31776472657569        0.51330157946606       -1.11053916198486
H           -2.34062366764963       -1.41725808435242        1.42870224608064
H            0.06165456613489       -1.70089086075038        1.08440245064115
H            1.51034722085881       -0.38226635862814       -2.91217227600966
H            3.94529917699575       -0.71644704303505       -3.25413396085353
