  40
  -69.9550513821000       0.191860866982973      !
 C          5.7147584559       -1.8988874474        0.7137034640
 C          4.5942137563       -0.9729653232        0.3736949785
 C          3.2867645701       -1.2581898454        0.5298596433
 C          2.3079381679       -0.2763479436        0.1690755986
 N          1.0166923615       -0.5518786221        0.3388719745
 C          0.1087593353        0.3567597038        0.0121611802
 N         -1.2170652338        0.0351751445        0.1875165117
 C         -2.1992924329        1.0386839118        0.3068320334
 C         -1.9720680692        2.2139025658        1.0130461537
 C         -2.9533863689        3.1867910279        1.0866727878
 C         -4.1787268815        2.9886052276        0.4743036962
 C         -4.4413969370        1.7964411342       -0.1774054688
 C         -3.4613516654        0.8186585073       -0.2507266226
 O         -3.7672760852       -0.3662357676       -0.8620291781
 C         -2.9957631285       -1.4395026980       -0.4841593369
 C         -3.5285521572       -2.7031328852       -0.6778397147
 C         -2.8076813700       -3.8230397932       -0.3010794419
 C         -1.5695827039       -3.6717694610        0.2945419992
 C         -1.0332868092       -2.4100635777        0.4957226387
 C         -1.7257474220       -1.2804139754        0.0838697363
 C          0.4687300505        1.6077487216       -0.5482639790
 C          1.7945175691        1.8974426220       -0.7220727565
 C          2.7594376025        0.9519937446       -0.3430512932
 C          4.1784334443        1.2180755205       -0.4944972552
 O          4.6647234088        2.2371150891       -0.9184893187
 O          5.0302671751        0.2071357903       -0.1144726173
 H          6.3395819409       -2.0571739075       -0.1636536769
 H          6.3407265225       -1.4510140477        1.4841038907
 H          5.3310696465       -2.8502783497        1.0656362971
 H          2.9605597956       -2.2053952050        0.9208802647
 H         -1.0185652179        2.3638651538        1.4961884564
 H         -2.7559663360        4.1002655741        1.6255267652
 H         -4.9393675566        3.7520134458        0.5196363343
 H         -5.3969409768        1.6038170802       -0.6380393123
 H         -4.5033333941       -2.7844976914       -1.1318082463
 H         -3.2221111116       -4.8056860169       -0.4644369359
 H         -1.0093541262       -4.5391708269        0.6081461356
 H         -0.0641551083       -2.2887942065        0.9457933526
 H         -0.2941959200        2.2996163299       -0.8664926790
 H          2.1211521163        2.8289860823       -1.1587524835
  40
  -69.9549875374000       0.179326887227721      !
 C          5.3682582624        2.0541680091        1.9606021021
 C          4.3927930396        1.3282385674        1.0950355496
 C          3.0638193408        1.2752384981        1.3103939187
 C          2.2374653800        0.5294677155        0.4086208283
 N          0.9263554083        0.4615788505        0.6323789491
 C          0.1628864187       -0.2434048990       -0.1894543297
 N         -1.1918874526       -0.2907467943        0.0580768608
 C         -1.9352067830        0.7878322873        0.5885235461
 C         -1.4120995480        1.7271395436        1.4658906496
 C         -2.1817747466        2.7989803895        1.8887511995
 C         -3.4874864509        2.9399682500        1.4590669208
 C         -4.0338908126        1.9929477298        0.6101968883
 C         -3.2669325572        0.9245727131        0.1765422601
 O         -3.8737002615        0.0211353169       -0.6632027200
 C         -3.2866349686       -1.2123773923       -0.7282666449
 C         -4.0533630844       -2.2827242336       -1.1616498077
 C         -3.5065323630       -3.5535197596       -1.2005552297
 C         -2.2083944893       -3.7596966089       -0.7680298306
 C         -1.4398954635       -2.6928238535       -0.3363964217
 C         -1.9541550600       -1.4015608573       -0.3526506046
 C          0.6937152711       -0.9074763118       -1.3228479680
 C          2.0392833088       -0.8371352688       -1.5611420010
 C          2.8552271537       -0.1181011079       -0.6747560983
 C          4.2908750295       -0.0265927106       -0.8746873731
 O          4.9123566884       -0.5407566665       -1.7711714154
 O          4.9876145450        0.7124547665        0.0518147376
 H          4.8585620876        2.5462239289        2.7820889709
 H          6.1017777449        1.3523424341        2.3543042035
 H          5.9071458543        2.7923885992        1.3692817823
 H          2.6096956394        1.7733795382        2.1482742757
 H         -0.3917092830        1.6200079549        1.7891289396
 H         -1.7500951120        3.5256166284        2.5596126865
 H         -4.0865108356        3.7759099561        1.7850904234
 H         -5.0515131040        2.0666209192        0.2612772192
 H         -5.0710710066       -2.0966999784       -1.4652938174
 H         -4.1024532624       -4.3820572794       -1.5496221614
 H         -1.7873790940       -4.7529466539       -0.7632199541
 H         -0.4301834230       -2.8551966386        0.0086356997
 H          0.0369502106       -1.4266758228       -2.0022557657
 H          2.4913233323       -1.3082386570       -2.4207280309
  40
  -69.9549310543000       0.168922528904705      !
 C          5.3236705976        2.7361140307       -1.0260652184
 C          4.3692467986        1.6997327881       -0.5330051394
 C          3.0330621485        1.7430841585       -0.7014130401
 C          2.2281267829        0.6731237865       -0.1924266756
 N          0.9101349514        0.7034314174       -0.3815087575
 C          0.1660489112       -0.2947851381        0.0711440754
 N         -1.1953852700       -0.2404813170       -0.1352054453
 C         -1.9488126685        0.9550821723       -0.1239592888
 C         -1.4446008862        2.1880208029       -0.5134239640
 C         -2.2216477546        3.3303074659       -0.4070319986
 C         -3.5165173626        3.2582366876        0.0704998957
 C         -4.0447740227        2.0306935916        0.4309544771
 C         -3.2700425902        0.8867448400        0.3359565061
 O         -3.8587465681       -0.2981710278        0.7088355009
 C         -3.2728175378       -1.4307303075        0.2147414874
 C         -4.0319377727       -2.5889058586        0.1520744955
 C         -3.4871825891       -3.7443765732       -0.3803082561
 C         -2.1992749506       -3.7303894855       -0.8862798366
 C         -1.4385267463       -2.5760493687       -0.8242243084
 C         -1.9496966347       -1.4258202979       -0.2342960986
 C          0.7246614467       -1.3828860197        0.7863709441
 C          2.0776869330       -1.4181696306        0.9870461546
 C          2.8732522837       -0.3818062646        0.4752468593
 C          4.3158118960       -0.3851584943        0.6409030173
 O          4.9612203637       -1.2405450871        1.1939498700
 O          4.9911328016        0.6885590846        0.1082312989
 H          4.7894443583        3.5545903132       -1.4968611284
 H          5.9178083572        3.1144494586       -0.1962131781
 H          6.0106192356        2.2895667449       -1.7434633523
 H          2.5579405565        2.5583642584       -1.2172860904
 H         -0.4326094154        2.2417253194       -0.8742060110
 H         -1.8044889734        4.2809569624       -0.7016030245
 H         -4.1210734701        4.1475815975        0.1570432122
 H         -5.0536697766        1.9356065563        0.7995940701
 H         -5.0423853778       -2.5623042269        0.5272278935
 H         -4.0771160698       -4.6466571294       -0.4164411559
 H         -1.7803288558       -4.6183027947       -1.3334089884
 H         -0.4373376840       -2.5632330630       -1.2273753445
 H          0.0836085470       -2.1481914567        1.1936702354
 H          2.5515644702       -2.2154618525        1.5390872116
  40
  -69.9548696523000       0.158295718744149      !
 C          5.7254156051       -1.7138733521       -1.0733699886
 C          4.6015704832       -0.8676979819       -0.5748240309
 C          3.2947747088       -1.1624800843       -0.7199411886
 C          2.3118328872       -0.2537606355       -0.2106185785
 N          1.0200916229       -0.5337398646       -0.3759969012
 C          0.1091240150        0.3165038468        0.0728332998
 N         -1.2221888972        0.0050389356       -0.1077151718
 C         -2.1752957428        1.0291921567       -0.2659906908
 C         -1.8692424168        2.2257035535       -0.9038466314
 C         -2.8244360863        3.2191621737       -1.0291656680
 C         -4.1033134269        3.0223806453       -0.5391297142
 C         -4.4402685772        1.8129614128        0.0435507981
 C         -3.4858464019        0.8158697656        0.1701821848
 O         -3.8677945718       -0.3789611278        0.7151254766
 C         -3.0636113301       -1.4540608528        0.4209123289
 C         -3.6150144088       -2.7136647723        0.5844150714
 C         -2.8627979511       -3.8425322133        0.3095066271
 C         -1.5675071055       -3.7034094374       -0.1510000267
 C         -1.0133533991       -2.4455863176       -0.3266460135
 C         -1.7440341468       -1.3051665452       -0.0249022496
 C          0.4634705057        1.5058959527        0.7558884397
 C          1.7886630241        1.7959259936        0.9356396733
 C          2.7568608846        0.9146066435        0.4308772970
 C          4.1758720667        1.1870934207        0.5764635278
 O          4.6581502695        2.1551258674        1.1096293333
 O          5.0320932256        0.2501087457        0.0461756936
 H          5.3460906547       -2.6174925469       -1.5389332234
 H          6.3147826672       -1.1519816706       -1.7961989892
 H          6.3842330181       -1.9759223037       -0.2473909850
 H          2.9720280871       -2.0589090365       -1.2186586280
 H         -0.8746012869        2.3767542070       -1.2956761579
 H         -2.5636319169        4.1470743525       -1.5139546945
 H         -4.8457999711        3.7999731412       -0.6257278507
 H         -5.4362135542        1.6211195056        0.4092071027
 H         -4.6317207069       -2.7847623589        0.9377851373
 H         -3.2951835197       -4.8211666805        0.4484737560
 H         -0.9757502708       -4.5764738892       -0.3790721775
 H         -0.0017178468       -2.3332768751       -0.6758267276
 H         -0.3052080206        2.1479792065        1.1554278316
 H          2.1126630432        2.6779351878        1.4669781345
  40
  -69.9547244743000       0.135753170043077      !
 C          5.6393290998       -2.1011189757        0.2561938549
 C          4.5466366694       -1.0928198281        0.1215500872
 C          3.2367641575       -1.3504283857        0.3013505083
 C          2.2851730945       -0.2936418432        0.1260520342
 N          0.9923462421       -0.5472479206        0.3051468809
 C          0.1049748657        0.4224570325        0.1262254363
 N         -1.2167426614        0.0964455032        0.2977604535
 C         -2.2380955726        1.0690433747        0.3228622617
 C         -2.1307336108        2.2456097097        1.0538588864
 C         -3.1445683608        3.1870433560        1.0124913087
 C         -4.2817810230        2.9544486901        0.2581606512
 C         -4.4323682724        1.7562699613       -0.4172652545
 C         -3.4216687147        0.8081675208       -0.3733269598
 O         -3.6202121773       -0.3900772036       -1.0036884643
 C         -2.8858860952       -1.4390290889       -0.5029243055
 C         -3.3760456971       -2.7199966943       -0.6973974596
 C         -2.6905226852       -3.8052174258       -0.1799873258
 C         -1.5390450279       -3.6035145651        0.5585384251
 C         -1.0443595288       -2.3247107740        0.7567225442
 C         -1.6932556517       -1.2332516403        0.1987004921
 C          0.4912786244        1.7225872609       -0.2843878442
 C          1.8222004765        1.9921555168       -0.4539622200
 C          2.7656061295        0.9778776058       -0.2324818040
 C          4.1872262138        1.2157809862       -0.3990285806
 O          4.6990774713        2.2687953585       -0.6895564829
 O          5.0115380793        0.1309306988       -0.2072980672
 H          6.3409392127       -1.7839369454        1.0257811190
 H          5.2322087129       -3.0734726366        0.5125253249
 H          6.1903966014       -2.1713495277       -0.6800660693
 H          2.8854518073       -2.3324321367        0.5635418955
 H         -1.2469008128        2.4204814313        1.6481387415
 H         -3.0410532867        4.1044937782        1.5706496049
 H         -5.0637085736        3.6959755322        0.2111718491
 H         -5.3217744007        1.5365628073       -0.9856462185
 H         -4.2881198995       -2.8428912771       -1.2593161386
 H         -3.0677503695       -4.8026695976       -0.3440133973
 H         -1.0151639028       -4.4450350173        0.9849965825
 H         -0.1420639615       -2.1658904535        1.3194112638
 H         -0.2516772154        2.4729435863       -0.4982488228
 H          2.1677966810        2.9640628958       -0.7722887061
  40
  -69.9542241191000       7.994708825724142E-002 !
 C          5.5828508739       -2.1809660288       -0.0151830299
 C          4.5115666312       -1.1409855242       -0.0214697978
 C          3.2002415873       -1.3875605932        0.1626777329
 C          2.2682269775       -0.3012877751        0.0959542366
 N          0.9739154534       -0.5442146231        0.2737476573
 C          0.1015156601        0.4513606547        0.1785828074
 N         -1.2192924990        0.1258254524        0.3518977338
 C         -2.2560338195        1.0831023055        0.3261548244
 C         -2.2055746298        2.2647703846        1.0545413328
 C         -3.2267209963        3.1934789060        0.9473066277
 C         -4.3153298966        2.9417459964        0.1300387931
 C         -4.4153030360        1.7348220369       -0.5391303601
 C         -3.3982188249        0.7988285454       -0.4285815032
 O         -3.5521145368       -0.4106506545       -1.0499890327
 C         -2.8343796929       -1.4437014599       -0.4954040601
 C         -3.3030093765       -2.7342189709       -0.6823004838
 C         -2.6315824272       -3.7987879644       -0.1069929383
 C         -1.5183162801       -3.5683383514        0.6808705681
 C         -1.0454206604       -2.2803584247        0.8706070514
 C         -1.6785105206       -1.2107825133        0.2555937833
 C          0.5058885862        1.7699568153       -0.1455441524
 C          1.8406558041        2.0292655104       -0.3028172182
 C          2.7685053486        0.9864726480       -0.1659266707
 C          4.1924752833        1.2120655900       -0.3261773711
 O          4.7228525309        2.2778313185       -0.5216751372
 O          4.9970626788        0.0985914343       -0.2448459529
 H          6.0420703869       -2.2379489880       -1.0012136812
 H          6.3616739922       -1.9053756511        0.6933381992
 H          5.1725564757       -3.1502826535        0.2478782138
 H          2.8314826391       -2.3815577723        0.3431417512
 H         -1.3614535861        2.4537986452        1.6999421651
 H         -3.1665382165        4.1162373689        1.5030662012
 H         -5.1014309860        3.6738310962        0.0311192664
 H         -5.2702490082        1.4982125625       -1.1519899038
 H         -4.1865500302       -2.8809524168       -1.2827725778
 H         -2.9912708513       -4.8039557065       -0.2637620046
 H         -1.0084777312       -4.3943704183        1.1521542688
 H         -0.1733914059       -2.0990909936        1.4731851957
 H         -0.2237299191        2.5460936311       -0.3045518408
 H          2.2000685374        3.0168240316       -0.5496629963
  40
  -69.9536795673000       4.493078135308334E-002 !
 C          5.5180673591       -2.2334554312       -0.2626788678
 C          4.4688033667       -1.1763932578       -0.1585259168
 C          3.1594912914       -1.4107955854        0.0529096771
 C          2.2477515046       -0.3057829325        0.0876118513
 N          0.9533711514       -0.5374978600        0.2759853502
 C          0.0976667997        0.4774995329        0.2597670240
 N         -1.2237935801        0.1531956772        0.4277431584
 C         -2.2722400593        1.0952669246        0.3413754598
 C         -2.2902647417        2.2748736042        1.0737295407
 C         -3.3155243902        3.1885826085        0.8961565828
 C         -4.3391167962        2.9235424252        0.0028194239
 C         -4.3757954131        1.7159464088       -0.6715141031
 C         -3.3567042779        0.7936227829       -0.4889113779
 O         -3.4536107040       -0.4203713817       -1.1137359555
 C         -2.7682329623       -1.4425213717       -0.5009384874
 C         -3.2145406319       -2.7401878382       -0.6943149213
 C         -2.5728188971       -3.7873579903       -0.0567165695
 C         -1.5120072136       -3.5348010960        0.7950914590
 C         -1.0604042033       -2.2402217098        0.9888904522
 C         -1.6650987147       -1.1888742340        0.3174793693
 C          0.5200850446        1.8084851076        0.0251836188
 C          1.8566894109        2.0540456100       -0.1409318869
 C          2.7665015753        0.9877747292       -0.1006416805
 C          4.1896066280        1.1977122536       -0.2877858643
 O          4.7348706254        2.2644457379       -0.4300074941
 O          4.9729979605        0.0668867546       -0.3105067747
 H          5.9740861131       -2.1977514328       -1.2510432280
 H          6.3041057643       -2.0487560156        0.4671881270
 H          5.0881487786       -3.2157941568       -0.0977919513
 H          2.7749808215       -2.4076419339        0.1753760781
 H         -1.4990455685        2.4733552536        1.7802787416
 H         -3.3089849463        4.1107251453        1.4561488864
 H         -5.1249166692        3.6459547507       -0.1531035423
 H         -5.1818149737        1.4685995014       -1.3435547444
 H         -4.0563654963       -2.9064891955       -1.3472878220
 H         -2.9146381116       -4.7982725415       -0.2165948325
 H         -1.0276836637       -4.3488473943        1.3119376469
 H         -0.2278902572       -2.0396633221        1.6403154068
 H         -0.1960169756        2.6080356270       -0.0597023622
 H          2.2306432670        3.0506072664       -0.3209173030
  40
  -69.9535921969000       4.096295848705069E-002 !
 C          5.7185666290       -1.8399876579        0.8509213508
 C          4.6005948966       -0.9297440140        0.4533133947
 C          3.2929707570       -1.2211439804        0.6043626131
 C          2.3105420376       -0.2677935766        0.1863772455
 N          1.0192975879       -0.5469703921        0.3548415861
 C          0.1083699776        0.3395331862       -0.0187322211
 N         -1.2194224529        0.0203321202        0.1595995544
 C         -2.1888545703        1.0320519077        0.3039216353
 C         -1.9245037680        2.2123330766        0.9887999853
 C         -2.8934275271        3.1947408797        1.0931748611
 C         -4.1446447549        3.0015126451        0.5344015192
 C         -4.4423779796        1.8057690944       -0.0954079069
 C         -3.4741203673        0.8193218853       -0.2009950146
 O         -3.8167230054       -0.3649291009       -0.7933147585
 C         -3.0266456493       -1.4415442940       -0.4677731558
 C         -3.5652140178       -2.7016692066       -0.6675026158
 C         -2.8274968482       -3.8292704972       -0.3512164702
 C         -1.5637117355       -3.6888365938        0.1898703559
 C         -1.0219233588       -2.4306795677        0.3985421467
 C         -1.7336798733       -1.2918574432        0.0492235414
 C          0.4635450597        1.5693061552       -0.6267338052
 C          1.7884194587        1.8618259886       -0.8031889057
 C          2.7570228393        0.9408022545       -0.3758993543
 C          4.1749452788        1.2118802764       -0.5251680322
 O          4.6584709873        2.2132539606       -0.9920692993
 O          5.0313782887        0.2282787927       -0.0843125835
 H          5.5893979682       -2.1749168428        1.8774750882
 H          5.7362427236       -2.7175666873        0.2066860914
 H          6.6641349221       -1.3136670716        0.7557002826
 H          2.9745379092       -2.1529645287        1.0370486652
 H         -0.9508758730        2.3593437733        1.4310703311
 H         -2.6650232035        4.1120823886        1.6129882211
 H         -4.8965762370        3.7718036448        0.6027342016
 H         -5.4172879042        1.6168753873       -0.5152049939
 H         -4.5586304393       -2.7734639942       -1.0807188543
 H         -3.2470271183       -4.8084862022       -0.5217777408
 H         -0.9860968283       -4.5614395555        0.4533367322
 H         -0.0333092411       -2.3176277168        0.8068080557
 H         -0.3033709744        2.2417480581       -0.9761701583
 H          2.1112953822        2.7766486813       -1.2764292273
