  80
       -124.48943257
 O          2.4959628218        0.3506450006        3.9568571690
 C          2.4313868285       -0.1168112402        2.8324474054
 C          1.1777694850       -0.7558680950        2.3427794575
 C          1.2006361042       -1.9291894551        1.5913295920
 C          0.0170916718       -2.5263451264        1.2063117277
 C         -1.2073773177       -1.9486432456        1.5343560647
 C         -2.4656768628       -2.6357618987        1.1294004263
 O         -2.5470447748       -3.8522538501        1.1397659082
 C         -3.5940819144       -1.7770335263        0.7299650783
 C         -4.8961067559       -2.2688262230        0.8567831041
 C         -5.9806049959       -1.5109505263        0.4860217340
 C         -5.8003715176       -0.2337640396       -0.0608019122
 N         -6.8862847165        0.5301119256       -0.4498902001
 C         -8.0780879587       -0.0786130376       -0.8801880525
 C         -9.3087642492        0.4510565858       -0.4977778503
 C        -10.4819273217       -0.1364798359       -0.9309035464
 C        -10.4452857067       -1.2586953790       -1.7420314148
 C         -9.2236763447       -1.7873451263       -2.1255173833
 C         -8.0451322745       -1.2015247818       -1.7047480653
 C         -6.8233653368        1.9339280964       -0.4319917172
 C         -7.3908817498        2.6715976971       -1.4691110707
 C         -7.3444874622        4.0523801361       -1.4452411095
 C         -6.7294021382        4.7145310744       -0.3954591596
 C         -6.1644996343        3.9849403483        0.6378422197
 C         -6.2129128339        2.6040139866        0.6265560330
 C         -4.4943259644        0.2489642718       -0.2137894477
 C         -3.4135669661       -0.5050246245        0.1815468874
 C         -1.2301770658       -0.7842188968        2.2997549694
 C         -0.0472674486       -0.2048448604        2.7118618863
 C          3.5722276362       -0.0761500188        1.9018587562
 C          3.4153272301       -0.1030473702        0.5138308144
 C          4.5072210801       -0.0089853919       -0.3180436333
 C          5.8008029360        0.1057514972        0.2069079265
 N          6.8989753639        0.2051768529       -0.6289188033
 C          8.0397196810        0.9230197912       -0.2280272664
 C          7.9126357928        2.1391951746        0.4402524968
 C          9.0398132962        2.8414755406        0.8216489359
 C         10.3025738464        2.3486265749        0.5357957441
 C         10.4325327580        1.1436994494       -0.1349519963
 C          9.3111971284        0.4306208880       -0.5141065476
 C          6.8949282673       -0.3879774906       -1.9020633270
 C          6.3468055413       -1.6550637220       -2.0930171635
 C          6.3555567163       -2.2327280692       -3.3482532109
 C          6.9163181523       -1.5637597210       -4.4239530764
 C          7.4696215468       -0.3077424932       -4.2365470190
 C          7.4585988531        0.2813003659       -2.9867550716
 C          5.9579528000        0.1323031330        1.5988541479
 C          4.8622782484        0.0562006902        2.4240038567
 H          2.1459168924       -2.3859267442        1.3382277626
 H          0.0212947958       -3.4471837708        0.6422168594
 H         -5.0332161547       -3.2544242908        1.2754255468
 H         -6.9805204345       -1.8953946497        0.6194522080
 H         -9.3365835139        1.3222713264        0.1404422968
 H        -11.4298731061        0.2807367070       -0.6258978521
 H        -11.3633121619       -1.7181293933       -2.0745614300
 H         -9.1861882063       -2.6575191396       -2.7636779893
 H         -7.0927499077       -1.6066191565       -2.0143737007
 H         -7.8651060677        2.1543279462       -2.2904915523
 H         -7.7854638446        4.6134829791       -2.2555302769
 H         -6.6924595555        5.7930012743       -0.3811749332
 H         -5.6904647329        4.4936206904        1.4640303689
 H         -5.7840411037        2.0352568989        1.4389519510
 H         -4.3382666620        1.2193706799       -0.6609788631
 H         -2.4156204022       -0.1219405551        0.0289866699
 H         -2.1758507605       -0.3541631010        2.5943685704
 H         -0.0522088547        0.6856597452        3.3226476768
 H          2.4258327818       -0.1582777338        0.0850621821
 H          4.3691132552       -0.0039146382       -1.3890868188
 H          6.9276233578        2.5288256270        0.6526894929
 H          8.9297533138        3.7836907147        1.3373748813
 H         11.1803247787        2.9015323707        0.8331110449
 H         11.4132948496        0.7515745249       -0.3589272176
 H          9.4112159617       -0.5121602158       -1.0320937144
 H          5.9215801464       -2.1825858999       -1.2514083433
 H          5.9299479454       -3.2158492615       -3.4840302655
 H          6.9242384794       -2.0198689683       -5.4019597962
 H          7.9064839676        0.2216397087       -5.0700974659
 H          7.8836886108        1.2638465815       -2.8414997047
 H          6.9491565745        0.2094259300        2.0196779278
 H          4.9805350359        0.0790018246        3.4969093103
