80
 energy: -124.475411687743 gnorm: 0.000076838378 xtb: 6.7.1 (edcfbbe)
O            2.27453550298784        1.38774170597610        3.07168391567988
C            2.32586636216262        0.59753127700731        2.10108891818499
C            1.16704350950486       -0.11924786862742        1.62082748940280
C            1.25410586375196       -1.30023037237115        0.85386532111640
C            0.12535355707370       -1.94494932912283        0.43169680605313
C           -1.16247933534338       -1.44028558041863        0.71391428427450
C           -2.32067244710871       -2.14758900946063        0.21806263892865
O           -2.26751578703690       -3.33823563692526       -0.16757085963341
C           -3.61295927494318       -1.43382237234018        0.12919341422264
C           -4.80194727277677       -2.15373757456028        0.29863652785709
C           -6.02694260679783       -1.54258784807052        0.17022388447062
C           -6.10540736374461       -0.18528126735459       -0.16541699701331
N           -7.34343007325648        0.44187708781310       -0.30999246191313
C           -8.41333236877345       -0.25050045259167       -0.88001781345084
C           -9.71656855232698       -0.04112350264184       -0.41952637261904
C          -10.77059919205042       -0.72893021844195       -0.98695344794352
C          -10.54716951831561       -1.63265118413201       -2.01527517499083
C           -9.25580097997974       -1.84521278018957       -2.47479116566732
C           -8.19359057353434       -1.16209570315110       -1.91679140692586
C           -7.50368230428068        1.76671807932342        0.10206590683881
C           -8.31210144436583        2.64286549238538       -0.62748229084220
C           -8.46402867966218        3.95143189232231       -0.21387015529409
C           -7.81612756191476        4.40782683595331        0.92441112441546
C           -7.01110688752363        3.54266982795111        1.65085312300961
C           -6.85285454459100        2.23147309688217        1.24836802779319
C           -4.92071096276104        0.53112893521388       -0.37618721094444
C           -3.69840895042153       -0.08586927932607       -0.23883631515418
C           -1.24963390724347       -0.30252171032563        1.54347524531375
C           -0.12076051868152        0.32309037751513        1.99356309839159
C            3.61795550440098        0.41844435281859        1.40370187373604
C            3.70324478621723        0.27483974547392        0.01381757539034
C            4.92529386970270        0.16923227233973       -0.60995395092673
C            6.10952777088709        0.22087024360860        0.13544938354940
N            7.34734045708233        0.11238414303568       -0.50052223147750
C            8.42123684889022        0.89370935202726       -0.07055964477732
C            8.20664471196612        2.19700585514823        0.38731012501074
C            9.27201225888542        2.96638885158885        0.81076063581650
C           10.56149018022587        2.45593743073247        0.78450597279791
C           10.77959308303037        1.16277523800353        0.33244317982630
C            9.72232443811639        0.38278100062063       -0.09172230421391
C            7.50089736628419       -0.76742738095261       -1.57392531031615
C            6.83408993447096       -1.99596595534189       -1.57821244039686
C            6.98663767908219       -2.86310821029861       -2.64167540781803
C            7.80191486652253       -2.52531612305658       -3.71195434711402
C            8.46441789351445       -1.30677561821321       -3.71335164077230
C            8.31799773691125       -0.43015074450365       -2.65664127222513
C            6.03178915242670        0.40235602616417        1.52166672425808
C            4.80698566073465        0.51215582480389        2.13713821983045
H            2.22428412438360       -1.71908374378676        0.62796661350368
H            0.19090265630322       -2.85636556578856       -0.14661180663274
H           -4.73224453409333       -3.20098953114177        0.55409370300982
H           -6.93422106888272       -2.10225249051404        0.34332775134567
H           -9.88860117882986        0.64797885970376        0.39370336338933
H          -11.77215624460855       -0.56578657204949       -0.61840235572271
H          -11.37371229998917       -2.16885133306768       -2.45567934322985
H           -9.07508967928576       -2.54181612451989       -3.27966810841575
H           -7.19067216366483       -1.31552601886454       -2.28648931194879
H           -8.80061666542598        2.29308641242149       -1.52461385243854
H           -9.08453278433071        4.62246770376126       -0.78864711249171
H           -7.93656901008112        5.43175375347420        1.24346581808530
H           -6.50915600579231        3.88940927170844        2.54169571798217
H           -6.23881160323887        1.55333802524496        1.82218092476144
H           -4.97261941465272        1.56774101635743       -0.67501790541928
H           -2.79493370215833        0.46842806794206       -0.44409231028342
H           -2.21983921403764        0.05696268394723        1.85524110019138
H           -0.18615981829368        1.18888849112862        2.63824043070956
H            2.80031034779312        0.27367381769579       -0.57800457145922
H            4.97737439268102        0.07166502154397       -1.68437467845661
H            7.20507149131867        2.60077087326945        0.39112035635122
H            9.09539929058071        3.97433095792210        1.15518282733469
H           11.39070653935330        3.06251283038383        1.11486141254662
H           11.77969143704765        0.75618209140965        0.31875617804623
H            9.89022816741647       -0.63029814550973       -0.42529632711137
H            6.21225906226112       -2.26611785539178       -0.73772846056203
H            6.47214855103004       -3.81229964509513       -2.63108024058978
H            7.91858562587456       -3.20751153529103       -4.53996995134139
H            9.09251702442611       -1.03362274454529       -4.54785980585820
H            8.81808515518874        0.52668317570604       -2.66761789648949
H            6.93911266522570        0.43693206914127        2.10636383803299
H            4.73749488347958        0.65324931695467        3.20585741805547
