80
 energy: -124.544885575339 gnorm: 0.000054191835 xtb: 6.7.1 (edcfbbe)
O            2.49908183560783        0.38974629481659        3.93629933793344
C            2.44048743934342       -0.06105581551898        2.79732450601276
C            1.18775632120271       -0.69694231404341        2.30472842829091
C            1.20960153172043       -1.85470074053829        1.52822899988565
C            0.02532829291008       -2.44866737591843        1.13979174689958
C           -1.20037833938940       -1.88734669898407        1.49298641562908
C           -2.45493465952978       -2.57686370666672        1.08439069813179
O           -2.51935002162596       -3.80132327153020        1.08932767800646
C           -3.59376232429120       -1.73854783992830        0.69085752523441
C           -4.88520014406929       -2.27247481263555        0.77015400239501
C           -5.98413441168046       -1.53390190135380        0.40548176377505
C           -5.83227981801039       -0.22788491572122       -0.08242005126387
N           -6.93219317656003        0.52067420634784       -0.45545569616541
C           -8.09888751545031       -0.10378738066175       -0.93449719536148
C           -9.35198696571764        0.35165419268385       -0.52983389638015
C          -10.49844896214087       -0.25010736945081       -1.01381877279667
C          -10.41186177388306       -1.31339223842336       -1.89798106366456
C           -9.16720842144193       -1.76887693947254       -2.30248535659454
C           -8.01535845828852       -1.16765375071504       -1.83096604217936
C           -6.91755122920357        1.92420438930724       -0.36019730918187
C           -7.49305008271095        2.69907703237088       -1.36548652692456
C           -7.49686890166144        4.07749466339762       -1.26283840967024
C           -6.92349946473485        4.70029706446616       -0.16595493865054
C           -6.35058527571167        3.93313687948244        0.83570916342101
C           -6.34954281128609        2.55386865740569        0.74597444837469
C           -4.53670264257392        0.29738273260434       -0.19097834650921
C           -3.44126608433521       -0.44057998230614        0.19177100613727
C           -1.22249226060295       -0.74219524662351        2.28794056256150
C           -0.03823805646397       -0.16373547629059        2.69894122570856
C            3.58418539736611       -0.00478083663166        1.87886964662756
C            3.44284094998003       -0.04229696300908        0.48750519779293
C            4.54399387158847        0.03580825307894       -0.33248336045313
C            5.83446633270390        0.14932041225571        0.20397389006552
N            6.94103449327790        0.21397264989595       -0.62121254773408
C            8.09285509675844        0.91918133242017       -0.22506679381125
C            7.98250623644565        2.16150558907082        0.39688243589604
C            9.11952697444303        2.85426498678866        0.76811557514718
C           10.37559810930864        2.32533346802958        0.51767021709266
C           10.48875517077242        1.09276972583171       -0.10504218456109
C            9.35727314583873        0.38910541174064       -0.47299974287936
C            6.94391834204665       -0.41943361008804       -1.87696714347126
C            6.38416559869519       -1.68650329547355       -2.03244771659103
C            6.40030521469206       -2.30519585911668       -3.26828758815121
C            6.98174642974040       -1.67822702179359       -4.35868588128955
C            7.54690390485627       -0.42243246960464       -4.20583990489675
C            7.52783607563676        0.20797823426497       -2.97588111618798
C            5.97496138089276        0.20563268323350        1.59811213570338
C            4.87054604275732        0.14018226458777        2.41174331299155
H            2.15312149844455       -2.30361687803254        1.25654055736285
H            0.03024858948979       -3.35544589089378        0.55242897558767
H           -5.00065416767831       -3.27660638196971        1.15193154490485
H           -6.97382672019589       -1.95412744336606        0.50260092073143
H           -9.41932022682581        1.17616304148373        0.16481276843163
H          -11.46479189185862        0.10907926705496       -0.69177209340882
H          -11.30916455491922       -1.78350735064019       -2.27129066316372
H           -9.09108238185867       -2.59226016366927       -2.99739546363182
H           -7.04564545811229       -1.51536645321144       -2.15629962451763
H           -7.93507616927144        2.21415467445182       -2.22353105867855
H           -7.94396987861552        4.66847603284815       -2.04858404764143
H           -6.92554136981552        5.77723706675607       -0.09070374367097
H           -5.90906971664382        4.41041762351063        1.69831786437476
H           -5.91494752470906        1.95628365476078        1.53399630258333
H           -4.40134835927446        1.28907341065349       -0.59598466783596
H           -2.45265995859045       -0.02429556671680        0.06996937973755
H           -2.16671230745614       -0.32612979620318        2.60611426882898
H           -0.04278126005753        0.71422512367284        3.32863450465354
H            2.45827865187197       -0.09622595740816        0.04806699633719
H            4.41643596911055        0.02551225783704       -1.40457654220547
H            7.00357962808966        2.57926529373723        0.58209558293142
H            9.02280147459492        3.81723050084223        1.24772237387326
H           11.26120967775488        2.87146303042002        0.80564040662344
H           11.46425447124107        0.67228446681568       -0.30028111282258
H            9.44543889062024       -0.57392130465328       -0.95418537857605
H            5.94336207465614       -2.18188359262755       -1.17959365807112
H            5.96475753075060       -3.28760072367942       -3.37733303203214
H            6.99547253736052       -2.16662433200910       -5.32137137330970
H            8.00061712277909        0.07388010440216       -5.05107780998038
H            7.96349674865894        1.18935790099473       -2.85857045010343
H            6.96038469286333        0.28984632673019        2.03088107192515
H            4.97794183400887        0.17515446784894        3.48625773196779
