  75
       -109.96107621
 C         -6.4969378841       -3.3847869245       -0.5316835732
 C         -5.3432646257       -3.9025326317        0.3178197118
 C         -4.0819058476       -3.0678522559        0.1179287564
 C         -2.9157256114       -3.5709510988        0.9768732938
 C         -1.7212019562       -2.6861434325        0.7846272612
 C         -0.7839884363       -2.9559798264       -0.2050989699
 C          0.2729314568       -2.0986151264       -0.4388502936
 C          0.4073560695       -0.9459351559        0.3267412411
 N          1.4415496146       -0.0300972995        0.0740703501
 C          1.3104724380        1.3529282681       -0.0078218955
 C          0.1001669672        2.0848679899        0.0234800525
 C          0.1294100750        3.3669680096        0.6242188877
 C         -1.0151277618        3.9931699881        1.0021934751
 C         -2.2984949075        3.3947806793        0.7677367161
 C         -3.4810985870        3.9705160341        1.2264454756
 C         -4.7111531760        3.3983314821        0.9458788765
 C         -4.8062097074        2.2537230486        0.1409567705
 C         -6.0516905880        1.6749501943       -0.2055366296
 C         -6.1101005734        0.5689634532       -1.0334348281
 C         -4.9604569438        0.0072948924       -1.5482079520
 C         -3.6867865490        0.5437350216       -1.2252856349
 C         -2.5000121378        0.0386805753       -1.7672861838
 C         -1.2696836289        0.5601798996       -1.4010699254
 C         -1.1701697757        1.5778996753       -0.4539282420
 C         -2.3582512269        2.2033980784       -0.0023186592
 C         -3.6153830246        1.6641506258       -0.3580944471
 N          2.5112437558        1.9211951128       -0.0812570449
 C          3.4240583074        0.9359657758       -0.0871721997
 C          4.8451094119        1.2361762038       -0.1475780187
 C          5.8038622525        0.4063218423        0.4327206244
 C          7.1438418782        0.7357526692        0.3580502798
 C          7.5461467104        1.8944291869       -0.2866822178
 C          6.5972704781        2.7353717438       -0.8465846190
 C          5.2567647613        2.4124010464       -0.7752820781
 C          2.7817835981       -0.3089634091        0.0104220334
 C          3.3353170942       -1.6496050547        0.0406807742
 C          2.9255966015       -2.5836023798        0.9941737192
 C          3.4694775435       -3.8535415417        1.0029531905
 C          4.4238475061       -4.2133360397        0.0650912322
 C          4.8401206153       -3.2904365197       -0.8821780020
 C          4.3036287548       -2.0185633881       -0.8966717674
 C         -0.5069941705       -0.6802885605        1.3406250871
 C         -1.5626979720       -1.5419694641        1.5566888668
 H         -7.3923050197       -3.9795057945       -0.3670264284
 H         -6.2435321403       -3.4323197729       -1.5885291572
 H         -6.7159626618       -2.3500970660       -0.2786879334
 H         -5.6300163893       -3.8756429201        1.3714983399
 H         -5.1364972372       -4.9433969176        0.0577554888
 H         -3.7867303379       -3.0970961460       -0.9324875367
 H         -4.2898720077       -2.0266082679        0.3712529129
 H         -2.6752426077       -4.5974980303        0.6937483380
 H         -3.2179612385       -3.5661811441        2.0258375125
 H         -0.8890198591       -3.8446926511       -0.8102024487
 H          0.9833482209       -2.3089011093       -1.2243552116
 H          1.0985375181        3.7850184622        0.8496418414
 H         -0.9808966925        4.9422289059        1.5159346458
 H         -3.4319242389        4.8792495114        1.8093899348
 H         -5.6161188435        3.8470891497        1.3291576975
 H         -6.9577335324        2.1198058601        0.1782028165
 H         -7.0720469190        0.1476680697       -1.2911250076
 H         -5.0135483413       -0.8428033376       -2.2111915369
 H         -2.5474679734       -0.7732325338       -2.4783095341
 H         -0.3750579284        0.1756999613       -1.8662602762
 H          5.4982771042       -0.4864981784        0.9567927548
 H          7.8791951039        0.0873970197        0.8123511365
 H          8.5951077558        2.1449132157       -0.3446483279
 H          6.9063180108        3.6450093370       -1.3405960674
 H          4.5044734422        3.0571653452       -1.2021134899
 H          2.1952263663       -2.3049973325        1.7395006585
 H          3.1482982741       -4.5657483778        1.7487145935
 H          4.8443759016       -5.2075778179        0.0741282886
 H          5.5843073454       -3.5654158523       -1.6148814378
 H          4.6222637521       -1.2992690898       -1.6366289668
 H         -0.3899244109        0.2050677144        1.9472610784
 H         -2.2774708515       -1.3208104743        2.3355323253
