  40
  -69.9879270430000       0.245492761108023      !
 C          5.6881037648        1.9651532963        0.3274492631
 C          4.5713644293        0.9881251793        0.1681579570
 C          3.2653752008        1.2762137668        0.3310601124
 C          2.2914047600        0.2440317316        0.1378276838
 N          1.0034240562        0.5276437250        0.3048199299
 C          0.0943075176       -0.4198016937        0.1145733023
 N         -1.2195320909       -0.0662309618        0.2797962802
 C         -1.6692911209        1.2738171190        0.1820576249
 C         -0.9979313022        2.3528345467        0.7377184177
 C         -1.4659254759        3.6410959226        0.5357554403
 C         -2.6129795928        3.8648570150       -0.2036971441
 C         -3.3214393393        2.7929223034       -0.7174029743
 C         -2.8578537694        1.5026113441       -0.5193113176
 O         -3.6147838251        0.4684114890       -1.0166130321
 C         -3.4396503564       -0.7334432012       -0.3875207313
 C         -4.4696254878       -1.6608825145       -0.4299307853
 C         -4.3411796428       -2.8629003249        0.2428772014
 C         -3.2064329953       -3.1198273723        0.9932125219
 C         -2.1743040173       -2.1985976781        1.0341750043
 C         -2.2602668918       -1.0187671113        0.3056886741
 C          0.4539407185       -1.7268123281       -0.3011996789
 C          1.7785991423       -2.0270599911       -0.4605797556
 C          2.7456274835       -1.0378184145       -0.2226670378
 C          4.1618086381       -1.3056176310       -0.3730501651
 O          4.6550794831       -2.3725717477       -0.6662828227
 O          5.0087003984       -0.2473544167       -0.1637451198
 H          6.2739159408        2.0058888165       -0.5893965493
 H          5.3016793159        2.9525457853        0.5573379737
 H          6.3529398619        1.6390095126        1.1258979154
 H          2.9339087462        2.2646125515        0.5961348553
 H         -0.0997417216        2.1773173037        1.3026412607
 H         -0.9250199861        4.4724351149        0.9604653937
 H         -2.9690525644        4.8694796539       -0.3708333385
 H         -4.2311603023        2.9326027436       -1.2791994547
 H         -5.3562086596       -1.4217961507       -0.9947767157
 H         -5.1379529605       -3.5885566023        0.1972961916
 H         -3.1193507284       -4.0402095182        1.5491657141
 H         -1.2925708825       -2.3920627104        1.6260345503
 H         -0.3044073549       -2.4580142974       -0.5268299943
 H          2.1029367402       -3.0048828776       -0.7824744095
  40
  -69.9878004136000       0.214705835138518      !
 C          5.7308538288        1.8544888966       -0.5942913933
 C          4.5984962985        0.9237711121       -0.3143145121
 C          3.2942040881        1.2275573656       -0.4613793127
 C          2.3052745392        0.2355592729       -0.1623170938
 N          1.0186710168        0.5313844404       -0.3241457588
 C          0.0987085893       -0.3851549804       -0.0537718138
 N         -1.2171076769       -0.0330800738       -0.2206473139
 C         -1.6855082367        1.2999960361       -0.1276780428
 C         -0.9964991201        2.3971652187       -0.6239837695
 C         -1.4925214270        3.6767779194       -0.4332716248
 C         -2.6861977836        3.8767768718        0.2350516800
 C         -3.4068351888        2.7882864358        0.6940925318
 C         -2.9140358725        1.5068738394        0.5101962096
 O         -3.6840055050        0.4614158925        0.9625602639
 C         -3.4567392737       -0.7375942690        0.3448775987
 C         -4.4719550281       -1.6820268714        0.3374144646
 C         -4.2894973641       -2.8831209481       -0.3244085525
 C         -3.1125267163       -3.1229937146       -1.0129310976
 C         -2.0955417790       -2.1846669874       -1.0032992323
 C         -2.2391593484       -1.0029639564       -0.2862946005
 C          0.4445675918       -1.6676194658        0.4419969882
 C          1.7663177515       -1.9786165686        0.6048436859
 C          2.7442150308       -1.0245426447        0.2828836199
 C          4.1592327319       -1.3071681809        0.4259387725
 O          4.6371134520       -2.3564642194        0.7978986773
 O          5.0199692419       -0.2895163156        0.1093398764
 H          6.3590099234        1.9459403839        0.2902773506
 H          6.3496354581        1.4506704371       -1.3945685298
 H          5.3594426125        2.8324234397       -0.8821574416
 H          2.9763087563        2.1982893863       -0.7983665071
 H         -0.0628380887        2.2403577089       -1.1340655653
 H         -0.9369326059        4.5204242647       -0.8126753483
 H         -3.0675061731        4.8740651266        0.3894067655
 H         -4.3497980398        2.9068634309        1.2033691771
 H         -5.3895837195       -1.4557984147        0.8561364778
 H         -5.0747772824       -3.6224912921       -0.3179343009
 H         -2.9805065144       -4.0441477430       -1.5586362739
 H         -1.1794957299       -2.3663589722       -1.5446731489
 H         -0.3230106380       -2.3693737312        0.7241945259
 H          2.0802014224       -2.9366122684        0.9905276920
  40
  -69.9877264711000       0.198546496214932      !
 C          5.7652654072        1.6770136262       -0.9102666467
 C          4.6205356036        0.8173688415       -0.4898900972
 C          3.3197606026        1.1403905455       -0.6316327802
 C          2.3170341230        0.2170839171       -0.1929269324
 N          1.0321617987        0.5272798795       -0.3541748745
 C          0.1015676641       -0.3334464573        0.0319057575
 N         -1.2186723355        0.0122760000       -0.1428171355
 C         -1.7088937818        1.3354842369       -0.0476771444
 C         -0.9766907548        2.4583947113       -0.4065578953
 C         -1.4992184435        3.7273377228       -0.2145988123
 C         -2.7631649688        3.8944153001        0.3191618141
 C         -3.5197128117        2.7829437018        0.6475365720
 C         -3.0000547131        1.5121664883        0.4653003647
 O         -3.8070109982        0.4523508507        0.8044150927
 C         -3.4881366487       -0.7422743291        0.2209945062
 C         -4.4745887236       -1.7113578612        0.1222725351
 C         -4.1992126386       -2.9156961600       -0.5012671455
 C         -2.9524927085       -3.1348378949       -1.0609834281
 C         -1.9651999345       -2.1703062780       -0.9623198566
 C         -2.2073733519       -0.9822039674       -0.2828306418
 C          0.4308076174       -1.5664486179        0.6494568069
 C          1.7483523212       -1.8886175258        0.8228402357
 C          2.7377773596       -0.9967034256        0.3793080958
 C          4.1493125782       -1.2988816647        0.5195218810
 O          4.6130255664       -2.3092085965        0.9998396129
 O          5.0248689091       -0.3484050214        0.0616022773
 H          5.4078676946        2.5884016730       -1.3777979200
 H          6.3758838109        1.9270695906       -0.0440065705
 H          6.3975254446        1.1311729802       -1.6086146375
 H          3.0167629518        2.0731444153       -1.0734648349
 H          0.0112114432        2.3254142341       -0.8115180745
 H         -0.9074615742        4.5877056913       -0.4866749389
 H         -3.1682647188        4.8822920510        0.4735545326
 H         -4.5134695360        2.8752013536        1.0562263471
 H         -5.4455301728       -1.5020533057        0.5416674591
 H         -4.9652951029       -3.6721916555       -0.5659649353
 H         -2.7424551555       -4.0578982196       -1.5783995186
 H         -0.9950353265       -2.3374210113       -1.4052288648
 H         -0.3498421733       -2.2169163646        1.0093570578
 H          2.0515810883       -2.8059268056        1.3039287712
  40
  -69.9876028463000       0.174200020991411      !
 C          5.2935753140       -2.2993797602        1.8901289459
 C          4.3455684273       -1.4993874461        1.0611017687
 C          3.0141785996       -1.4324878889        1.2594114208
 C          2.2184048608       -0.6112073772        0.3977554521
 N          0.9061465373       -0.5284291217        0.6086931709
 C          0.1696823129        0.2486740750       -0.1716549689
 N         -1.1852697578        0.3135599598        0.0637776288
 C         -1.9149479720        1.4684490109       -0.2809089805
 C         -1.3695898940        2.7422998089       -0.1715981308
 C         -2.1070170795        3.8546880729       -0.5373463968
 C         -3.4048016750        3.7105207799       -0.9958901129
 C         -3.9821359069        2.4540225239       -1.0504493381
 C         -3.2463527591        1.3378679694       -0.6835345435
 O         -3.8625716024        0.1177191357       -0.7104892221
 C         -3.2894964007       -0.8563186222        0.0716360752
 C         -4.0866283523       -1.9348798656        0.4169762516
 C         -3.5751798237       -2.9506208071        1.2056830612
 C         -2.2748540714       -2.8684165406        1.6668058787
 C         -1.4749197470       -1.7877512686        1.3316859938
 C         -1.9620672524       -0.7797509434        0.5117415181
 C          0.7307773273        0.9734561566       -1.2529692022
 C          2.0765674266        0.8869350071       -1.4798645068
 C          2.8661683430        0.0932416468       -0.6327005460
 C          4.3006459606       -0.0179400104       -0.8161053041
 O          4.9507234484        0.5401838062       -1.6716376536
 O          4.9675453394       -0.8269354126        0.0674695982
 H          4.7612786021       -2.8390625744        2.6663036572
 H          5.8322195531       -3.0035608516        1.2581870708
 H          6.0305758751       -1.6392588687        2.3452176954
 H          2.5356529096       -1.9744599135        2.0558986395
 H         -0.3603399845        2.8553733071        0.1942480911
 H         -1.6619149851        4.8344353838       -0.4614855878
 H         -3.9760017606        4.5754763935       -1.2942773597
 H         -5.0001141833        2.3143628801       -1.3767407681
 H         -5.0992097521       -1.9612093573        0.0470774826
 H         -4.1973339979       -3.7934809985        1.4628249233
 H         -1.8707974331       -3.6490931963        2.2926381839
 H         -0.4587088457       -1.7262881062        1.6798803308
 H          0.0950016033        1.5509713740       -1.9045364708
 H          2.5496873273        1.4020380830       -2.3016411664
  40
  -69.9875632678000       0.167054886547116      !
 C          5.2999484433       -2.2777123564        1.9033212508
 C          4.3491103502       -1.4887910059        1.0669593393
 C          3.0168968868       -1.4277360532        1.2619667366
 C          2.2191237499       -0.6129548042        0.3960216315
 N          0.9063190310       -0.5334088047        0.6053841422
 C          0.1688277425        0.2400760644       -0.1776352399
 N         -1.1859446764        0.3068430967        0.0584698864
 C         -1.9129230375        1.4639056239       -0.2847002214
 C         -1.3634579462        2.7360909079       -0.1768135556
 C         -2.0981572215        3.8506453865       -0.5414155390
 C         -3.3973303507        3.7103113387       -0.9971935668
 C         -3.9788427180        2.4556753784       -1.0496429968
 C         -3.2457735811        1.3374109546       -0.6837542019
 O         -3.8658937223        0.1191707900       -0.7078092527
 C         -3.2941473692       -0.8553475791        0.0747349946
 C         -4.0947562851       -1.9294652502        0.4258463120
 C         -3.5849340014       -2.9454887195        1.2152808925
 C         -2.2820503396       -2.8687345775        1.6698987428
 C         -1.4785842328       -1.7924435735        1.3291607926
 C         -1.9649077289       -0.7832670064        0.5101399449
 C          0.7288112448        0.9619835786       -1.2614144799
 C          2.0748267191        0.8775947238       -1.4876446923
 C          2.8658541583        0.0900097171       -0.6361339420
 C          4.3011975035       -0.0155538967       -0.8164827612
 O          4.9501157234        0.5411914280       -1.6738693105
 O          4.9698913359       -0.8183015448        0.0712358300
 H          5.8700257416       -2.9575069046        1.2724750145
 H          6.0096774788       -1.6061623285        2.3846068693
 H          4.7658444769       -2.8421616752        2.6603337107
 H          2.5395254586       -1.9679335412        2.0602861962
 H         -0.3528419544        2.8461640511        0.1864189123
 H         -1.6502250883        4.8291744108       -0.4656428115
 H         -3.9668506809        4.5769730830       -1.2935852657
 H         -4.9980341048        2.3191738525       -1.3736536691
 H         -5.1090826617       -1.9518658773        0.0603890799
 H         -4.2093537912       -3.7857124659        1.4759257610
 H         -1.8789621904       -3.6500050134        2.2955159675
 H         -0.4605745625       -1.7349366291        1.6727217600
 H          0.0918925334        1.5356732765       -1.9153479205
 H          2.5473217910        1.3910042434       -2.3110974817
