  40
        -70.20390985
 C          5.7092189099        1.9350236995       -0.5435988009
 C          4.5876439467        0.9869536132       -0.2788556456
 C          3.2803243766        1.2749438322       -0.4307420796
 C          2.3028610846        0.2673069692       -0.1466407871
 N          1.0134179419        0.5477067595       -0.3132601434
 C          0.1040842491       -0.3833087341       -0.0567453607
 N         -1.2152812637       -0.0470030864       -0.2280631176
 C         -1.7017408441        1.2788853049       -0.1255383157
 C         -1.0244231067        2.3895770776       -0.6076561654
 C         -1.5383569133        3.6607368216       -0.4080493958
 C         -2.7383768001        3.8388183995        0.2550931892
 C         -3.4472204078        2.7367357236        0.6998433639
 C         -2.9365245915        1.4636705787        0.5070165350
 O         -3.6952243829        0.4040292232        0.9451987066
 C         -3.4486345206       -0.7860941991        0.3178177525
 C         -4.4512516731       -1.7436646611        0.2956971136
 C         -4.2491853046       -2.9360493336       -0.3761030515
 C         -3.0652279614       -3.1540309521       -1.0599094337
 C         -2.0607737410       -2.2025625255       -1.0356661877
 C         -2.2240646344       -1.0295698864       -0.3086393282
 C          0.4639736156       -1.6656791830        0.4291826037
 C          1.7887539487       -1.9607969475        0.5968856262
 C          2.7558173128       -0.9910111307        0.2894732900
 C          4.1735949395       -1.2563522569        0.4381936750
 O          4.6631279589       -2.3026989956        0.8032447059
 O          5.0226407356       -0.2245849174        0.1360431948
 H          6.3310349490        2.0264800536        0.3454376805
 H          6.3378467603        1.5468285660       -1.3439331761
 H          5.3266032420        2.9106336203       -0.8245964112
 H          2.9515955330        2.2445118873       -0.7606111462
 H         -0.0858679803        2.2497949644       -1.1136899495
 H         -0.9917733364        4.5150990347       -0.7763928248
 H         -3.1336781544        4.8295347315        0.4164109880
 H         -4.3945677662        2.8381776334        1.2046647828
 H         -5.3747408446       -1.5343404857        0.8111051040
 H         -5.0246736944       -3.6856947616       -0.3810488631
 H         -2.9179499089       -4.0682545331       -1.6133104063
 H         -1.1393243760       -2.3671660012       -1.5733229764
 H         -0.2958910071       -2.3800465753        0.7003943698
 H          2.1130245533       -2.9181361249        0.9755426566
  40
        -70.20382650
 C          5.6597317881        2.0365357158        0.3788578920
 C          4.5569014009        1.0464537273        0.2040231177
 C          3.2463155058        1.3158418041        0.3619303276
 C          2.2871609007        0.2728033904        0.1534830780
 N          0.9946172461        0.5379138435        0.3155442244
 C          0.0991756048       -0.4195751892        0.1112441977
 N         -1.2201364438       -0.0848381169        0.2720304614
 C         -1.6869553812        1.2500406304        0.1840321758
 C         -1.0330746747        2.3325627693        0.7535472086
 C         -1.5168468280        3.6163918959        0.5607461689
 C         -2.6624945432        3.8319439646       -0.1833108964
 C         -3.3538051645        2.7556261203       -0.7110252521
 C         -2.8743919521        1.4697258140       -0.5221400204
 O         -3.6147593643        0.4303488935       -1.0333866898
 C         -3.4274046918       -0.7749043636       -0.4143985121
 C         -4.4448034451       -1.7153523457       -0.4713935435
 C         -4.3043799579       -2.9217884744        0.1910329430
 C         -3.1706635663       -3.1707650615        0.9455939793
 C         -2.1510210284       -2.2364841452        1.0010968250
 C         -2.2483543346       -1.0511565088        0.2830392109
 C          0.4783854315       -1.7178259037       -0.3144610983
 C          1.8077787069       -1.9991591310       -0.4688493826
 C          2.7603019709       -0.9995625118       -0.2161614303
 C          4.1807291740       -1.2473335334       -0.3607181645
 O          4.6896957674       -2.3049444096       -0.6608928578
 O          5.0123822757       -0.1800353935       -0.1367023490
 H          6.2502008737        2.0934887771       -0.5341284932
 H          5.2590124777        3.0165875539        0.6155835357
 H          6.3242229647        1.7117338210        1.1781402321
 H          2.9003335919        2.2972939919        0.6341708567
 H         -0.1359015668        2.1636047460        1.3220735885
 H         -0.9893912200        4.4507735215        0.9962688784
 H         -3.0308173012        4.8333165283       -0.3432497904
 H         -4.2620539260        2.8885714859       -1.2768236775
 H         -5.3312098479       -1.4826817590       -1.0391884204
 H         -5.0912430282       -3.6573881464        0.1340942716
 H         -3.0746426278       -4.0950577646        1.4935296926
 H         -1.2702204264       -2.4238543487        1.5962963448
 H         -0.2689513839       -2.4567906827       -0.5512646017
 H          2.1468187104       -2.9696016843       -0.7978505524
  40
        -70.20377347
 C          5.7433474001        1.7629872329       -0.8860485002
 C          4.6097322442        0.8836944046       -0.4763257613
 C          3.3049191644        1.1910611220       -0.6157464935
 C          2.3141211113        0.2497880525       -0.1882624933
 N          1.0253948970        0.5447571037       -0.3473138277
 C          0.1059392050       -0.3324092038        0.0283110170
 N         -1.2186099844       -0.0022366644       -0.1438554796
 C         -1.7263540984        1.3132467843       -0.0345488774
 C         -1.0087595094        2.4496369123       -0.3802656435
 C         -1.5481696988        3.7093636000       -0.1747780253
 C         -2.8146535245        3.8538096453        0.3595722356
 C         -3.5567168181        2.7288732741        0.6748878913
 C         -3.0201597428        1.4671670107        0.4790994575
 O         -3.8133185868        0.3930942156        0.8056773344
 C         -3.4782033113       -0.7906768353        0.2093774075
 C         -4.4516803313       -1.7715491990        0.0989758071
 C         -4.1598980646       -2.9651617474       -0.5375904916
 C         -2.9099298573       -3.1616040581       -1.0984878978
 C         -1.9355520067       -2.1852711837       -0.9881942686
 C         -2.1939660729       -1.0080737867       -0.2958293962
 C          0.4509362245       -1.5677240689        0.6324937825
 C          1.7724801805       -1.8743673087        0.8035790272
 C          2.7503968138       -0.9646042725        0.3709085937
 C          4.1656861988       -1.2496509994        0.5091387908
 O          4.6423147812       -2.2590270529        0.9786923502
 O          5.0289820205       -0.2826784083        0.0626195486
 H          5.3743217837        2.6747013837       -1.3438084702
 H          6.3498934072        2.0114696746       -0.0164809311
 H          6.3833414555        1.2333164619       -1.5897822320
 H          2.9899852873        2.1245715137       -1.0475194942
 H         -0.0188526175        2.3342101134       -0.7857139219
 H         -0.9676108197        4.5804335457       -0.4367383080
 H         -3.2329005934        4.8344788942        0.5244983027
 H         -4.5519426146        2.8034646535        1.0836090358
 H         -5.4256485431       -1.5797456531        0.5197193386
 H         -4.9158623588       -3.7309445698       -0.6114026565
 H         -2.6872851906       -4.0760193679       -1.6258867422
 H         -0.9628987528       -2.3346408482       -1.4319841303
 H         -0.3213454134       -2.2323927592        0.9844130626
 H          2.0874086769       -2.7928674024        1.2747772860
  40
        -70.20372013
 C          5.3037022945       -2.7128712359        1.1801465788
 C          4.3545599145       -1.7045540520        0.6247944206
 C          3.0193077576       -1.7191692927        0.8072477418
 C          2.2224820053       -0.6785837521        0.2306551787
 N          0.9058817696       -0.6818567660        0.4304600215
 C          0.1678807120        0.2919836802       -0.0815960065
 N         -1.1914618009        0.2635275372        0.1349957305
 C         -1.9360408699        1.4594393707        0.1551146734
 C         -1.4150060223        2.6410910828        0.6691983917
 C         -2.1662579531        3.8031670079        0.6558425521
 C         -3.4540990142        3.7946507976        0.1492023643
 C         -4.0082485521        2.6119134073       -0.3081049143
 C         -3.2585916145        1.4458760059       -0.2948553507
 O         -3.8526809573        0.2885240727       -0.7153428649
 C         -3.2745737730       -0.8748019890       -0.2666232656
 C         -4.0577446104       -2.0166976328       -0.2929162225
 C         -3.5406118559       -3.2224193731        0.1477383908
 C         -2.2491757306       -3.2735114961        0.6374538035
 C         -1.4633974042       -2.1327913940        0.6741656707
 C         -1.9556193575       -0.9243274581        0.2019170548
 C          0.7326296212        1.3260851388       -0.8696759484
 C          2.0830636180        1.3312120292       -1.0851292268
 C          2.8734536388        0.3212916886       -0.5137711478
 C          4.3123184278        0.2904197258       -0.6938815099
 O          4.9655009686        1.0965144069       -1.3180629493
 O          4.9797515471       -0.7469192802       -0.0952215328
 H          4.7691613761       -3.4751511370        1.7371383838
 H          5.8643394521       -3.1767296667        0.3702820883
 H          6.0218546866       -2.2201114845        1.8339662463
 H          2.5382516041       -2.4893531626        1.3838881712
 H         -0.4136479030        2.6457219396        1.0722801775
 H         -1.7397443014        4.7148852687        1.0439552264
 H         -4.0358344453        4.7026587229        0.1255761862
 H         -5.0184706335        2.5695261029       -0.6821441465
 H         -5.0639028925       -1.9377395190       -0.6727195402
 H         -4.1516605843       -4.1107698828        0.1151212230
 H         -1.8410550908       -4.2062372484        0.9950067314
 H         -0.4538977125       -2.1715393500        1.0444501302
 H          0.0968362465        2.0712287393       -1.3200117148
 H          2.5595783348        2.0837557999       -1.6943107232
  40
        -70.20370311
 C          5.3099795973       -2.6956853053        1.1989396459
 C          4.3580951776       -1.6958628426        0.6330224098
 C          3.0222295450       -1.7149940672        0.8109137033
 C          2.2233589998       -0.6795078840        0.2280366982
 N          0.9063553624       -0.6853470438        0.4257328800
 C          0.1672295007        0.2856606828       -0.0901436087
 N         -1.1919080777        0.2588023861        0.1281118588
 C         -1.9338955885        1.4563097416        0.1501939693
 C         -1.4085966380        2.6370884725        0.6618866672
 C         -2.1572321613        3.8008567254        0.6501553354
 C         -3.4467273401        3.7948529699        0.1477170665
 C         -4.0052081891        2.6129792146       -0.3064773157
 C         -3.2581564238        1.4452653483       -0.2947181725
 O         -3.8563027040        0.2885887193       -0.7113198251
 C         -3.2793312396       -0.8751495788       -0.2621288348
 C         -4.0661009208       -2.0147203909       -0.2809542961
 C         -3.5504099674       -3.2207722952        0.1605556728
 C         -2.2560685505       -3.2747323249        0.6420564890
 C         -1.4666368143       -2.1363145979        0.6714686174
 C         -1.9582695028       -0.9272096417        0.2001878731
 C          0.7306645645        1.3175253160       -0.8820436848
 C          2.0812091468        1.3244509766       -1.0966144455
 C          2.8730742748        0.3192316433       -0.5190602736
 C          4.3126050446        0.2927436653       -0.6949279548
 O          4.9644514101        1.0978945947       -1.3218252386
 O          4.9818913980       -0.7396892163       -0.0901654830
 H          5.9013646060       -3.1366283766        0.3983719054
 H          6.0004535526       -2.2003373726        1.8802668309
 H          4.7745628572       -3.4753158656        1.7303933585
 H          2.5424815677       -2.4838613001        1.3903063357
 H         -0.4056557607        2.6398989699        1.0612615578
 H         -1.7277862129        4.7116418995        1.0373894992
 H         -4.0268909048        4.7038412918        0.1263982150
 H         -5.0168471804        2.5726786177       -0.6770566978
 H         -5.0742610666       -1.9336292517       -0.6550613961
 H         -4.1637937297       -4.1077833190        0.1325633664
 H         -1.8487503052       -4.2078159332        0.9994180551
 H         -0.4550828424       -2.1771641598        1.0358513160
 H          0.0936587983        2.0595697840       -1.3359246389
 H          2.5569318790        2.0757002071       -1.7083561392
