66
 energy: -105.232927724866 gnorm: 0.000124510406 xtb: 6.7.1 (edcfbbe)
C           11.91867112421278        0.40844353672489       -0.45200951285961
C           11.16890141189131       -0.62564678837840       -1.01143535956760
C            9.79763151539262       -0.58759495692483       -0.92145147217084
C            9.18617182884522        0.49529114585757       -0.26405277748673
C            7.75023091190220        0.58011393272376       -0.15663798755515
C            7.12514633178614        1.66937214701968        0.48199786728311
C            5.76268492154819        1.68794015490041        0.60218211998852
C            4.98209137640412        0.63490529535791        0.07512023413406
C            3.54078773187889        0.61321429304378        0.14909397072631
C            2.79351514263892        1.80724742214847        0.18116160547071
C            1.43096765447210        1.77394157813295        0.22678739127230
C            0.70359409372503        0.56198271234801        0.25574642576961
C           -0.72346068935848        0.53239385290808        0.23398335031944
C           -1.49827643996137        1.71394914840667        0.18205218175573
C           -2.86007371488765        1.69203845320037        0.11160407621704
C           -3.55735742478674        0.46886922285653        0.06665640721715
C           -4.99601480345299        0.42619680464725       -0.04396583349320
C           -5.69114379940788       -0.63634378278065       -0.66341204852654
C           -7.05813474564222       -0.63371265743186       -0.71609307565881
C           -7.77134843553007        0.44867965097533       -0.16468307527887
C           -9.21058425537278        0.51554808839110       -0.23932066614603
C           -9.91318770916571        1.59416520719761        0.32737533259112
C          -11.28524378429534        1.61540028245768        0.24219191531370
C          -11.94547213703813        0.56874055906843       -0.40029773110935
C          -11.17276427742233       -0.45376002825509       -0.92980930421302
N           -9.86141588750290       -0.47698952043985       -0.85513753768568
N           -7.10745681439115        1.44174192924846        0.43940808990557
C           -5.80660344073921        1.44005027993327        0.50097439192836
C           -2.80318517257776       -0.70430280570615        0.13766958416765
C           -1.41805341404482       -0.70994392492490        0.23455557671025
C           -0.66624323660864       -1.95014653469091        0.34864394045828
C           -1.30917454044945       -3.18968091826522        0.45914247224429
C           -0.60628916136340       -4.36632142486331        0.58305354260401
C            0.77992993878233       -4.33636249852542        0.61217643716823
C            1.43584030503682       -3.13060151817994        0.51304581938301
C            0.74487225128007       -1.92048949697129        0.37172921724809
C            1.44798222102264       -0.65108812579679        0.27139279164988
C            2.83298017449346       -0.58968231033693        0.19396490203039
C            5.70496888579021       -0.38446590465920       -0.57362586512081
N            7.00292392685939       -0.40134575676953       -0.67640285893576
N            9.92267514536027        1.47525982240121        0.27000750644801
C           11.23246667016553        1.43600585155136        0.17743346858217
H           12.99570187728810        0.41228094619531       -0.49949168139952
H           11.66345292904960       -1.44642377047879       -1.51127536562918
H            9.16411495068966       -1.35231377297219       -1.34249521192425
H            7.75626393501836        2.44474457851802        0.88720836322824
H            5.27889539424727        2.49291114341539        1.13566273566360
H            3.30322772874707        2.75813343759329        0.13713982339336
H            0.90425288157493        2.71426758226289        0.23371890192692
H           -1.00961370930620        2.67453373399484        0.19042788123119
H           -3.40657626045664        2.62134896176711        0.05081291545784
H           -5.13508022887943       -1.43510926470324       -1.13213569623336
H           -7.62397172426169       -1.41693595751024       -1.19582575541287
H           -9.34748875486734        2.36952162841842        0.81953921774072
H          -11.84897028336445        2.43278067644553        0.66904706385428
H          -13.01968870126804        0.55154215419488       -0.49001290035978
H          -11.62744578493708       -1.29130666093403       -1.44367114803861
H           -5.36504579831091        2.26190759515108        1.04919210402499
H           -3.34262991495177       -1.63680078879669        0.13349831523830
H           -2.38556047698314       -3.24509045454267        0.46002284571981
H           -1.13355610897397       -5.30528564057990        0.66544559414952
H            1.34329407675122       -5.25155656487601        0.71921042639654
H            2.51262097512954       -3.13809802455897        0.56092308031978
H            3.40887737302667       -1.50024103624674        0.19107727903423
H            5.18816543094055       -1.19619643559430       -1.06893550028168
H           11.75930391917411        2.26418104328934        0.63440636428220
