66
 energy: -105.232900427732 gnorm: 0.000066878784 xtb: 6.7.1 (edcfbbe)
C           11.94118283500270        0.42286595599275       -0.00635388746266
C           11.23623910900136       -0.65703554591519       -0.53635298266143
C            9.86188926234836       -0.62079098412121       -0.55246448799898
C            9.20262053652204        0.50647630074465       -0.03039656541382
C            7.76201018827276        0.58948797299759       -0.03488615214865
C            7.09100611998071        1.71956163751959        0.47191740864161
C            5.72315446522588        1.73690183317737        0.49320242538094
C            4.98498065487632        0.64067865741672       -0.00519976416666
C            3.54158618690263        0.61287106136440       -0.02712101462844
C            2.79061301866640        1.79941726271749       -0.13845359040649
C            1.42755329730787        1.76014818965050       -0.15391158242521
C            0.70292201027147        0.54998213633375       -0.05870816550656
C           -0.72448677527079        0.51851723624676       -0.07460033659869
C           -1.49955202944297        1.69643569516904       -0.18011927173124
C           -2.86309277913524        1.67669839136850       -0.18093700873916
C           -3.56373743931272        0.45841610946324       -0.08523883182977
C           -5.00645279170769        0.41738543459011       -0.09471052988004
C           -5.74505040520886       -0.68464254872846       -0.58141903841608
C           -7.11212298557605       -0.67635899221563       -0.54063248396115
C           -7.78432050247093        0.45045986515740       -0.02712205533179
C           -9.22445478969554        0.52109314489094       -0.00798030035618
C           -9.88515891928053        1.64554176225820        0.51946674319320
C          -11.25954779465602        1.66905815882509        0.52801665934229
C          -11.96442556771641        0.57956358258515        0.01704637307218
C          -11.23167175984123       -0.48625217439853       -0.48283476397810
N           -9.91843329314999       -0.51192666158885       -0.49754210176962
N           -7.07772374416637        1.48212283083758        0.45114051598739
C           -5.77596149839820        1.47621700298664        0.42377193962508
C           -2.80812688044605       -0.71117403290030        0.02003577682743
C           -1.41931920824740       -0.71951263696818        0.02358856095441
C           -0.66438847406708       -1.95849203373853        0.13205709235500
C           -1.30464695899562       -3.20183253489634        0.21348113086842
C           -0.60067203001600       -4.37906006684831        0.32274960066327
C            0.78535824575541       -4.34707025851921        0.35584260477109
C            1.43903136239484       -3.13909217154248        0.27287601727931
C            0.74695439169246       -1.92673166869322        0.15567790526079
C            1.44914657839653       -0.65664212275192        0.05444133567953
C            2.83646548575489       -0.58868998359952        0.06086697866418
C            5.75423710448360       -0.41880371612099       -0.52239367277122
N            7.05652605888235       -0.43406025390655       -0.53081754753753
N            9.89605107893465        1.53070809332454        0.47727759837868
C           11.20919497580890        1.49274666986991        0.48610199371404
H           13.01875071073956        0.42988744639281        0.02680127389584
H           11.76732661742504       -1.51166695138079       -0.93086237148141
H            9.26232511620942       -1.42081598876251       -0.95726573106124
H            7.68974406574173        2.52865594339554        0.85992360535367
H            5.20049870894207        2.57664274746374        0.92716417712360
H            3.29922833004820        2.74690721544863       -0.23627547544478
H            0.89861560345913        2.69463375338385       -0.24630233768312
H           -1.01016214101103        2.65274005969037       -0.26658637528212
H           -3.41074740670543        2.60139356205011       -0.28599523808880
H           -5.22420113608162       -1.52087054803595       -1.02446306721862
H           -7.71134504255337       -1.48978631927818       -0.91890065881208
H           -9.28549110243949        2.45307714167329        0.90902718482831
H          -11.79132857883545        2.52101873221469        0.92731951393032
H          -13.04227583456984        0.56256099625863        0.00363078606670
H          -11.72190154241440       -1.35841355610545       -0.89667965250010
H           -5.29619961544806        2.33452049258087        0.87556436211968
H           -3.34897257291308       -1.63656017335654        0.12743114765295
H           -2.38044731052647       -3.26159032875308        0.19051463984766
H           -1.12656334571252       -5.32047381758608        0.38281148847698
H            1.35052153801518       -5.26310503172951        0.44458367474889
H            2.51629213117478       -3.14896697534216        0.30285323542279
H            3.41591029893574       -1.49046754709669        0.16826758004141
H            5.27595929700037       -1.26958331409554       -0.99009416696411
H           11.69982531117422        2.35807783029223        0.91356824994976
