66
 energy: -105.310276647589 gnorm: 0.000097758482 xtb: 6.7.1 (edcfbbe)
C           11.92290376041234        0.44135979533906        0.02081439648394
C           11.24385916284613       -0.57936792484342       -0.62818531462002
C            9.86208036687137       -0.55203289279405       -0.65113884380863
C            9.20157510956115        0.50345668675513       -0.01916263838148
C            7.73608283475244        0.57608422748110       -0.01612986177955
C            7.07284906227612        1.63910481870540        0.60029861029090
C            5.69356823729757        1.66148485673308        0.58802732993551
C            4.99514305726585        0.62809069021473       -0.03853732987067
C            3.53115963877784        0.59951118367247       -0.08109727045782
C            2.79882992456731        1.77162151256071       -0.29009631064847
C            1.42861895656829        1.73003540083962       -0.32692911252419
C            0.71414027318523        0.53469072079501       -0.15673231588187
C           -0.73417339308001        0.50382680187175       -0.17523539668429
C           -1.49437944132755        1.66554361652002       -0.37795421672413
C           -2.86564358948181        1.64972796832959       -0.37410491134972
C           -3.55250744744171        0.44979634052011       -0.16828515708567
C           -5.01692974275919        0.41556412322856       -0.15348056018777
C           -5.73842365988477       -0.62714997515932       -0.73712827143807
C           -7.11703587304162       -0.60838384457891       -0.69105203377808
C           -7.75659987709069        0.46141032603892       -0.06151605473690
C           -9.22077512449854        0.52928798552732        0.00542848337007
C           -9.85667528253666        1.59847122803618        0.63960437876951
C          -11.23814232150016        1.61989338884444        0.68000210038162
C          -11.94128546394035        0.57977246979635        0.09011458846819
C          -11.21663107197721       -0.43690190632573       -0.51552105630786
N           -9.89975686926327       -0.46777799521624       -0.56039359733052
N           -7.07351393071009        1.45800382848333        0.50098946497772
C           -5.76009166229305        1.43073797535717        0.45501048276378
C           -2.81688244546375       -0.70544211609536        0.02456792484134
C           -1.41803647426540       -0.71559940632741        0.02398006245901
C           -0.66834780475461       -1.94545630131993        0.21440639087894
C           -1.31227983551986       -3.17930794392414        0.38349353056226
C           -0.60966740825720       -4.34850680933180        0.55012138111751
C            0.77870917445639       -4.32151940788778        0.54882183745253
C            1.43502409219115       -3.12527601458426        0.38531060391406
C            0.74302452814591       -1.91730343573047        0.21951945606058
C            1.44443721017115       -0.65656270902691        0.04848024953451
C            2.84122961623680       -0.58795386660889        0.08282903542982
C            5.76112285335348       -0.37827833376264       -0.63317126434405
N            7.07524575721076       -0.40896420105517       -0.62373799507460
N            9.85749429896437        1.48235568127884        0.60275716311216
C           11.17487236355334        1.44590744147224        0.61825586649589
H           13.00094051773329        0.45903936536011        0.06288377955953
H           11.78601980283961       -1.38219183297864       -1.10760991614298
H            9.27969553510860       -1.31606865527238       -1.13949467492497
H            7.65401660399148        2.41179966380559        1.07635346002850
H            5.15354433134498        2.45989570603796        1.07735584552419
H            3.31489428700844        2.70811947622704       -0.44236255480742
H            0.90312177514804        2.65618394703233       -0.49255053048871
H           -1.00455926576617        2.61050868380833       -0.54639754021995
H           -3.41762995606955        2.56085353462598       -0.55085121759401
H           -5.21785161986663       -1.43003979084563       -1.24034880392626
H           -7.71562109439631       -1.38866711666845       -1.13191187192966
H           -9.25610435945439        2.37714344226277        1.08051200640112
H          -11.76162856619804        2.43278437236281        1.16319173130818
H          -13.02000043444722        0.55668295909954        0.09889592583874
H          -11.71651325298146       -1.27182089080999       -0.99081439891864
H           -5.26224720791595        2.25670780806077        0.94781266349092
H           -3.36307853398968       -1.61688972194264        0.20432470128369
H           -2.38845353209901       -3.23516205537439        0.38373643119403
H           -1.13591629242530       -5.28285270347618        0.67798127698590
H            1.34106293672368       -5.23492781044797        0.67386947171547
H            2.51253981129470       -3.13858822877579        0.38401535080666
H            3.42209235018650       -1.47623413249169        0.26896249551758
H            5.28286574161456       -1.19335900801154       -1.16250643807177
H           11.65536833319697        2.26613047773323        1.13710334654670
