  45
        -63.57573109
 C          2.6940217323       -3.4254565867        0.0577616197
 C          2.2610805219       -2.9016347755       -1.1490073230
 C          1.4230405713       -1.8022664403       -1.1695322653
 C          1.0029098347       -1.2163620244        0.0205454132
 C          0.1435166472       -0.0002063008       -0.0032920021
 C         -1.1862927893       -0.0252715969       -0.7832137812
 C         -1.5767187020        1.1808874953       -1.5143947958
 C         -2.2163782118        1.1194970452       -2.7142854790
 C         -2.5560596652       -0.1035555723       -3.3031092069
 C         -2.2174093034       -1.2877813947       -2.6389254910
 C         -1.5762458741       -1.2744902190       -1.4384354137
 C         -1.1725534741        0.0214786447        0.8016091296
 C         -1.5438968130       -1.1855801232        1.5407849090
 C         -2.1458717727       -1.1256433773        2.7601479140
 C         -2.4664078593        0.0968153834        3.3609643636
 C         -2.1531861095        1.2816984298        2.6856727935
 C         -1.5503876805        1.2696769690        1.4654162572
 C          0.9987355470        1.2186090173       -0.0416623839
 C          1.4382354983        1.8058334615        1.1405592472
 C          2.2716784549        2.9084549573        1.1048554682
 C          2.6806687952        3.4340141139       -0.1093745425
 C          2.2539895047        2.8485098668       -1.2897337036
 C          1.4209039026        1.7454915774       -1.2581095168
 C          1.4488085014       -1.7415977260        1.2291060131
 C          2.2864747259       -2.8415779009        1.2455503511
 H          3.3482705304       -4.2844979495        0.0723561820
 H          2.5773866512       -3.3514620375       -2.0788224664
 H          1.0831998567       -1.3960336490       -2.1110373732
 H         -1.3207300725        2.1411448362       -1.0979393499
 H         -2.4728904666        2.0388375521       -3.2218942222
 H         -3.0731054086       -0.1328504574       -4.2482453965
 H         -2.4752288914       -2.2369411038       -3.0874884770
 H         -1.3207243760       -2.2071119242       -0.9630434794
 H         -1.3034254926       -2.1454729709        1.1142705327
 H         -2.3886292140       -2.0456890488        3.2730598789
 H         -2.9524540747        0.1252010887        4.3222530781
 H         -2.4023962702        2.2302063766        3.1404518535
 H         -1.3168967703        2.2029623243        0.9793322552
 H          1.1173951134        1.3984751630        2.0881784825
 H          2.6029939580        3.3595309583        2.0288489567
 H          3.3306348423        4.2960548690       -0.1357905818
 H          2.5710742714        3.2530851284       -2.2398412386
 H          1.0860609310        1.2915210715       -2.1793767933
 H          1.1301769538       -1.2880282249        2.1562718816
 H          2.6242834636       -3.2434854304        2.1896767893
