75
 energy: -118.095295798678 gnorm: 0.000065711450 xtb: 6.7.1 (edcfbbe)
N           -7.46207257914294        2.85421019689567        2.03000919585848
C           -6.38710199345203        2.77580814345837        1.63673605691578
C           -5.06487394944272        2.67949869931001        1.15561960921499
C           -4.14325387787477        1.84816504322485        1.79685435623125
C           -2.85374961457491        1.75641377216833        1.32624177011989
C           -2.45141596313141        2.48220305163382        0.19929897499744
N           -1.15393033298578        2.36799310853986       -0.27931219383218
C           -0.50919154430699        3.45280519726609       -0.89640853310910
C            0.29560923129759        3.23930642886830       -2.01377435292371
C            0.95670705245224        4.29819279677415       -2.60567140206029
C            0.81520760498879        5.58053053409305       -2.10149397337213
C            0.00707069157870        5.79799415218349       -0.99771601829418
C           -0.64912255616084        4.74343490340430       -0.39189034423297
C           -0.45991553544449        1.15647530390634       -0.16007934286937
C           -1.10900442774830       -0.05077711859923       -0.40016655367258
C           -0.41376799384893       -1.24871422637931       -0.28317877013965
N           -1.07283114845201       -2.45917779265914       -0.51573051843614
C           -2.29629562719380       -2.82771958556843        0.01524786330241
C           -3.11888434071560       -2.15028948644605        0.90344254761191
C           -4.29189229141853       -2.76546061250117        1.29760212514729
C           -4.64093756340260       -4.03119429346693        0.83353394855367
C           -3.81437903086598       -4.72183610873518       -0.02994585869807
C           -2.63192470376802       -4.12198272334953       -0.44211620658643
C           -1.55907677006194       -4.54507443013968       -1.29845136567829
C           -1.33356791719655       -5.69408113014586       -2.04457609072575
C           -0.18371508103271       -5.77417831486057       -2.80422769230071
C            0.72490131190796       -4.71934861623611       -2.83890285252206
C            0.52192698556612       -3.56631074088745       -2.10445015721791
C           -0.61732367481559       -3.49153223414975       -1.31632206702632
C            0.93962825047489       -1.24211395977012        0.04029435828280
C            1.59165997125691       -0.03308305595348        0.26170504145924
N            2.95259123157958       -0.01646353242688        0.57940140284599
C            3.90395802051719        0.80210811295273       -0.00293720737393
C            3.76895479420484        1.73513219959192       -1.02089426487810
C            4.90308283788259        2.40616799457523       -1.43701420909633
C            6.14882497620304        2.15341216921161       -0.86812324479884
C            6.29413315149825        1.20803309126679        0.12734220842115
C            5.16816463184333        0.52280430381324        0.56376699154237
C            4.96030376540893       -0.50868528383047        1.54159222698010
C            5.80604845115060       -1.16997583651930        2.42209307974055
C            5.26762517899552       -2.11494214979919        3.27223824561506
C            3.90229186141072       -2.38946890164104        3.26306333228319
C            3.04130411156006       -1.74432007548847        2.39559595860843
C            3.58065444224454       -0.81417459930841        1.51887181342038
C            0.88912799471903        1.16322481374812        0.17993917986207
C           -3.37687259354777        3.31912871743371       -0.43296164253624
C           -4.66600392682849        3.41823413791090        0.03892578796559
H           -4.44670724507267        1.28852590592817        2.66933734798838
H           -2.13423955476091        1.13323428393003        1.83683298820216
H            0.39066645362147        2.24049481254418       -2.41536461396109
H            1.57874604971617        4.12169556772627       -3.47064113210809
H            1.33090116780972        6.40624228181427       -2.56702243516299
H           -0.10589108716877        6.79462071431023       -0.59792590754852
H           -1.26766695995848        4.91164699915591        0.47760407463770
H           -2.14573514767727       -0.05623917019420       -0.69926922424432
H           -2.85497351945267       -1.17667598740766        1.28591516889334
H           -4.95114324592674       -2.25333997959172        1.98278302439444
H           -5.56725639613197       -4.47717539224380        1.16306324795988
H           -4.07558357342045       -5.70957713631332       -0.37825823923394
H           -2.04861562553600       -6.50260447625250       -2.03156170865931
H            0.01284250156682       -6.65976305949651       -3.38978561657607
H            1.60689403558196       -4.80151237943603       -3.45671426494408
H            1.22431166681703       -2.74840561173945       -2.15891734115586
H            1.48159721880913       -2.17090378961987        0.11606122186267
H            2.81450684354172        1.93263404034985       -1.48379913128914
H            4.81995471858618        3.14179839370961       -2.22337682978286
H            7.01085186805119        2.70050762548161       -1.21945159160225
H            7.26147238655241        0.99936570573517        0.55853671245874
H            6.86099497702405       -0.94205122654592        2.44101643341978
H            5.90764888810672       -2.64309137832903        3.96302688351649
H            3.50553237460407       -3.12042298886658        3.95196849863959
H            1.98223019479539       -1.95205628544390        2.41538592405905
H            1.38508999391745        2.09698048060543        0.39438089565833
H           -3.07532166615812        3.88120896489700       -1.30413220201455
H           -5.37921693556364        4.05915344962071       -0.45785801484818
