  75
       -118.09527981
 N         -7.4666346514        2.8263105293        2.0114398005
 C         -6.3895111777        2.7552422024        1.6230247181
 C         -5.0645708159        2.6654319120        1.1481157115
 C         -4.1436402862        1.8344107086        1.7908135829
 C         -2.8523523228        1.7461760790        1.3244831314
 C         -2.4477486933        2.4748602008        0.2002570150
 N         -1.1494828256        2.3615824571       -0.2765785543
 C         -0.5031695184        3.4498344933       -0.8862696077
 C          0.2987927882        3.2438394763       -2.0069449675
 C          0.9613624130        4.3062855538       -2.5909822541
 C          0.8242208205        5.5845536100       -2.0752895261
 C          0.0188539136        5.7945478242       -0.9680510022
 C         -0.6390481801        4.7363568228       -0.3703279453
 C         -0.4559438426        1.1499140767       -0.1598532677
 C         -1.1060131356       -0.0574919855       -0.3969171268
 C         -0.4120271104       -1.2560432853       -0.2781435439
 N         -1.0731480860       -2.4656253243       -0.5097751515
 C         -2.3018902897       -2.8284072978        0.0132301560
 C         -3.1248835407       -2.1498916230        0.9002699570
 C         -4.3038886371       -2.7592493142        1.2855340091
 C         -4.6587445646       -4.0206143376        0.8140762675
 C         -3.8319064164       -4.7127563665       -0.0479060829
 C         -2.6435199899       -4.1185887185       -0.4511072822
 C         -1.5689639991       -4.5452842922       -1.3034037290
 C         -1.3478627624       -5.6928201750       -2.0530754503
 C         -0.1946825541       -5.7780716680       -2.8070395510
 C          0.7213702704       -4.7294725656       -2.8325436023
 C          0.5224910389       -3.5777746241       -2.0948188394
 C         -0.6202914841       -3.4978661580       -1.3123398640
 C          0.9417597097       -1.2503142918        0.0444944753
 C          1.5954148604       -0.0410283325        0.2592080572
 N          2.9575158588       -0.0221648782        0.5725472820
 C          3.9054893800        0.7942921529       -0.0177447838
 C          3.7669764415        1.7146773808       -1.0466480940
 C          4.8981764404        2.3866049778       -1.4691907426
 C          6.1444527791        2.1468964602       -0.8957739146
 C          6.2932423015        1.2142237779        0.1111390901
 C          5.1701858711        0.5284633997        0.5543089234
 C          4.9656446352       -0.4915183634        1.5448726993
 C          5.8122920849       -1.1356216190        2.4371651085
 C          5.2763919664       -2.0714224975        3.2989971350
 C          3.9128129374       -2.3545738693        3.2889794661
 C          3.0508805039       -1.7265825724        2.4099404716
 C          3.5876689195       -0.8047086433        1.5230619171
 C          0.8942306191        1.1558461742        0.1754207681
 C         -3.3716767730        3.3135980240       -0.4317303776
 C         -4.6626685098        3.4091174373        0.0358405537
 H         -4.4493473692        1.2714955249        2.6604248686
 H         -2.1333842390        1.1227108322        1.8357108778
 H          0.3903361575        2.2481847497       -2.4172398904
 H          1.5806651120        4.1359179845       -3.4591510391
 H          1.3405456045        6.4130750202       -2.5350655237
 H         -0.0909669998        6.7879695111       -0.5596441019
 H         -1.2558733772        4.8982651513        0.5015741208
 H         -2.1430757104       -0.0628267972       -0.6948763762
 H         -2.8568586221       -1.1798658609        1.2888610653
 H         -4.9635303908       -2.2458610629        1.9693995057
 H         -5.5898400797       -4.4618986937        1.1364308016
 H         -4.0974873821       -5.6972239499       -0.4021166400
 H         -2.0690234014       -6.4959822389       -2.0472714921
 H         -0.0013308633       -6.6625738614       -3.3952918478
 H          1.6063095137       -4.8155048904       -3.4455992706
 H          1.2310711434       -2.7648575261       -2.1427867700
 H          1.4826041208       -2.1794180281        0.1244298407
 H          2.8118928014        1.9020047317       -1.5125019095
 H          4.8123255134        3.1126058287       -2.2641303923
 H          7.0041831074        2.6938964738       -1.2527232818
 H          7.2610447198        1.0156714359        0.5460731964
 H          6.8658679720       -0.9014399363        2.4562654668
 H          5.9171166193       -2.5856497319        3.9995481223
 H          3.5182303950       -3.0780686578        3.9868520812
 H          1.9930218172       -1.9406756155        2.4281903274
 H          1.3926570845        2.0893169888        0.3855031030
 H         -3.0674926800        3.8793572450       -1.2995840155
 H         -5.3750396904        4.0509318703       -0.4611009392
