75
 energy: -117.996862962815 gnorm: 0.000050597347 xtb: 6.7.1 (edcfbbe)
N           -7.36584968275952        2.69149933104292        2.03608265164090
C           -6.27053958761052        2.66633891847436        1.64561357719316
C           -4.97488110541483        2.63264767385553        1.18624599935809
C           -3.98245291614528        1.81418825483923        1.83668909586491
C           -2.71598901701926        1.76715214366775        1.37016435145033
C           -2.31855523546732        2.54535612463533        0.23090248012180
N           -1.03955258337337        2.44511465167439       -0.26511340481238
C           -0.39994658185124        3.55036009978142       -0.82094390790186
C            0.46230403209114        3.39076004774159       -1.91234732424590
C            1.08582299042999        4.48765917270885       -2.46663550908948
C            0.85740839492958        5.75832083324917       -1.95467917996175
C           -0.00503970063750        5.92299770011618       -0.87941210533913
C           -0.63179271249409        4.83350872752556       -0.31241045194682
C           -0.38125414607687        1.22021015400310       -0.20469895679115
C           -1.09417458968379        0.03419798439318       -0.42507374399208
C           -0.45509401490513       -1.18955399731066       -0.31149241919027
N           -1.16137077118570       -2.37174323921453       -0.54315458306388
C           -2.40995852660302       -2.68566868047690       -0.03196916615669
C           -3.22206368884156       -1.96736334675437        0.83349484428079
C           -4.42689351544179       -2.53145491523122        1.20850251700489
C           -4.81697309478778       -3.78651164291164        0.74860340788919
C           -4.00130452777490       -4.51820762582970       -0.09186309968813
C           -2.78823062997110       -3.96949688215348       -0.48494201346429
C           -1.71818483122996       -4.44291456753192       -1.31904967506703
C           -1.52722058996560       -5.60561627959218       -2.05251695636003
C           -0.36952871593253       -5.73751619787046       -2.79394525771772
C            0.58016411362811       -4.71971928445222       -2.82321369752561
C            0.41140915334938       -3.55324939375592       -2.10091181173581
C           -0.73496955802735       -3.42771319728305       -1.32948317704063
C            0.90246647566515       -1.24376545050895        0.01725083918582
C            1.61586015312922       -0.05919373754501        0.22637276282005
N            2.97437955236442       -0.11437395819796        0.54784151523436
C            3.97459270555860        0.63902222903191       -0.04056632453751
C            3.89960053843555        1.56067556331092       -1.07467761206403
C            5.07294540288123        2.15715796973208       -1.49594448268955
C            6.29861444679061        1.84275569371468       -0.91452499422036
C            6.38340675457738        0.90823281399391        0.09837468965477
C            5.21749158386443        0.29695628800914        0.53906201410549
C            4.94487999121448       -0.70443878782118        1.53244966721222
C            5.74562279568494       -1.39853120649710        2.42933208646912
C            5.14800133999511       -2.29652760149823        3.29122222880644
C            3.76919746575306       -2.49213748500355        3.27726292150839
C            2.95203492214030       -1.81238327680987        2.39381400638662
C            3.55006096229501       -0.93032280944426        1.50553086551880
C            0.97923482301407        1.16596587255699        0.12427768209071
C           -3.29444577385390        3.38909182860373       -0.39726445540529
C           -4.56872289446147        3.42308015804057        0.04981684558836
H           -4.27567196793100        1.25994173364111        2.71549882464656
H           -1.95556168858998        1.19572033140586        1.88392804358191
H            0.61036268169628        2.40444043991966       -2.32763332494893
H            1.74671880589278        4.35667598316584       -3.31026356748573
H            1.34667667090191        6.61411811489435       -2.39274158088374
H           -0.18140448055173        6.90843372958985       -0.47565566845194
H           -1.28368782497361        4.95313608722857        0.54000261173929
H           -2.12820658801055        0.08394913729991       -0.72813987251158
H           -2.93059639738135       -1.00035676828919        1.21194037075915
H           -5.07900188327197       -1.98488755550126        1.87307524264985
H           -5.76724264040095       -4.19163403171550        1.06189372273726
H           -4.29483294749056       -5.49778153912239       -0.43734883204405
H           -2.27399323170551       -6.38486218788457       -2.04501948145814
H           -0.19989066341092       -6.63476167496274       -3.36995158746859
H            1.46691106526216       -4.84096151839663       -3.42750858155348
H            1.14536940059831       -2.76337675042561       -2.15353975686783
H            1.39965185332576       -2.19546058082032        0.10643188589413
H            2.96028000464905        1.80384877459708       -1.54659072487773
H            5.03752064920157        2.88156292861511       -2.29613993034611
H            7.19278488298193        2.33250895525745       -1.26980033577801
H            7.33463887587416        0.65162788526757        0.53919330834789
H            6.81181681874390       -1.23184977900702        2.45194383891945
H            5.75226910079749       -2.84856830796998        3.99527531099796
H            3.32677877040435       -3.18688004604282        3.97557488862980
H            1.88243863220366       -1.95697885716061        2.41038417418024
H            1.51661567424169        2.07765501203568        0.33423794354789
H           -2.99871020913370        3.95184289725024       -1.27078158212168
H           -5.31491492022414        4.03019522915641       -0.43954980421695
