75
 energy: -118.095294900126 gnorm: 0.000070454771 xtb: 6.7.1 (edcfbbe)
N           -6.84492298834480        4.26611308965296        2.33198037830834
C           -5.81157752186032        3.98460505792646        1.92048324533439
C           -4.54067177813804        3.63805195396274        1.41678577983475
C           -3.81507003803432        2.59553253625137        1.99842196081049
C           -2.57454214805749        2.26088725745405        1.50666917477694
C           -2.02878521975950        2.94885910016342        0.41690465961667
N           -0.78470262306873        2.59206258283251       -0.08320341740730
C            0.07367258503380        3.54922687521556       -0.64920969694827
C            0.81678709449997        3.23121828525153       -1.78432068967540
C            1.68651334160821        4.15748963147607       -2.32672415894655
C            1.81746984231485        5.41218537093834       -1.75472715894301
C            1.07194369839442        5.73550475373715       -0.63295648107179
C            0.20787307598731        4.81168630154202       -0.07647817401671
C           -0.35829751738387        1.25799486391226       -0.03415385286713
C           -1.24315680639266        0.22653481192427       -0.33309231143996
C           -0.81241458689622       -1.09422037682988       -0.28520488086860
N           -1.70751202032422       -2.12682888960780       -0.57873593773244
C           -1.47297052859939       -3.18501743058955       -1.43867753103588
C           -0.36982097947205       -3.45177412773873       -2.23650305769948
C           -0.40780468735947       -4.57874028406347       -3.03564457589779
C           -1.51690355576610       -5.42075351328944       -3.05478969736141
C           -2.62918853492766       -5.14491464721162       -2.28512640213847
C           -2.61415628919018       -4.01782324831377       -1.47442023878920
C           -3.58008286836708       -3.42854297375153       -0.58950066862693
C           -4.86437531202397       -3.79001850643943       -0.20500186484379
C           -5.53363986902121       -2.99129282376004        0.70048131245839
C           -4.93058602415071       -1.85455202971376        1.23285340055169
C           -3.65248385768037       -1.47708331425426        0.86716216049169
C           -2.98421070791548       -2.26067748315307       -0.06227393645869
C            0.51142256890312       -1.38632978295296        0.02888339435007
C            1.39968560635212       -0.35255122946471        0.30838443926794
N            2.73362145283642       -0.63474329718067        0.61569703625812
C            3.83509167824829       -0.00200660059140        0.06752635543286
C            3.89834612535294        0.98731889677610       -0.90313785480050
C            5.14769238953172        1.43003874124009       -1.29403179877774
C            6.31280052305947        0.89897499654260       -0.74637897342768
C            6.25709601385129       -0.10326509690291        0.20138253762409
C            5.01274094699925       -0.56266828241043        0.61171698670250
C            4.59350267634637       -1.57552346469377        1.54001447563763
C            5.28165528627250       -2.43836006005287        2.38252545144086
C            4.55699545035140       -3.29223973233812        3.18961447079392
C            3.16442161763740       -3.27962651413979        3.17544583400007
C            2.45792423340972       -2.43017892751544        2.34519237960931
C            3.18059331454934       -1.58932065276701        1.51132218037032
C            0.96154614612687        0.96621470726682        0.29487165300474
C           -2.75750691457548        3.99640887637995       -0.15614899975157
C           -3.99603157613669        4.33813494552852        0.33737313560020
H           -4.22905460950405        2.06346319516432        2.84224679930960
H           -2.00254687717235        1.47191323964159        1.97258614354116
H            0.70016410838770        2.25750583699150       -2.23843897588646
H            2.25878468592855        3.90033480136151       -3.20571984838293
H            2.49606218036432        6.13458402553893       -2.18147242045197
H            1.17073708160623        6.71088024667410       -0.18047470765056
H           -0.36222008977367        5.05956461896248        0.80695539644782
H           -2.25729673306079        0.45253720218384       -0.62422988536203
H            0.48818723231080       -2.79684254264217       -2.24920353542874
H            0.44120458283135       -4.80853542218986       -3.66233121167122
H           -1.50616246116764       -6.29362871901341       -3.69020327243309
H           -3.49741458160725       -5.78566609083865       -2.31327772015546
H           -5.32423580231239       -4.68008711169159       -0.60686736729970
H           -6.53482596082537       -3.25139829744310        1.00954939262650
H           -5.47242782462448       -1.25516553522769        1.94944115497220
H           -3.19323869741126       -0.60314508435321        1.30215615112073
H            0.84810831214251       -2.41017856958395        0.05223312352768
H            3.00642974323486        1.39932233362406       -1.34927544165908
H            5.22040696783514        2.20428526281895       -2.04348802962390
H            7.27015029900580        1.27338213277445       -1.07673798193520
H            7.15931905380091       -0.52705840005078        0.61563737596160
H            6.36084393050202       -2.43345762020537        2.40600617448477
H            5.07201252021932       -3.97324229528083        3.85049354220201
H            2.62320379710229       -3.94583751767765        3.83083994172370
H            1.37867804961171       -2.41652636010329        2.36089504390421
H            1.64039283905654        1.76372300816258        0.55379431451882
H           -2.34504026096372        4.53089791445809       -0.99875308383160
H           -4.55820419973651        5.14238740170515       -0.11361411532044
