  90
       -142.31434572
 O          8.2842816768        3.0359224983       -0.1464535378
 C          7.9727234753        1.8716343196       -0.1097892093
 C          8.8775583393        0.6915285931       -0.0602082693
 C         10.2583974067        0.6582431706       -0.0448491854
 C         10.8876279055       -0.5802301336        0.0041541634
 C         10.1483701900       -1.7532719998        0.0360444579
 C          8.7584690364       -1.7286337314        0.0211864899
 C          8.1296071933       -0.5001928893       -0.0264110732
 C          6.7147302512       -0.1527477482       -0.0493130474
 N          5.6818437264       -0.9475559727       -0.0268133619
 C          4.4742186568       -0.3277412981       -0.0531814528
 C          3.3062335268       -1.1038515574       -0.0448905240
 C          2.0649683125       -0.5120585381       -0.0706015141
 C          0.8423309160       -1.3250941904       -0.1232364902
 C         -0.1389940242       -1.0511025201       -1.0760989389
 C         -1.3295950576       -1.7394561449       -1.0788030494
 C         -1.5850097622       -2.7175046655       -0.1150101248
 N         -2.8349630020       -3.3348515305       -0.0676672818
 C         -2.9510585317       -4.6847023061        0.2790882870
 C         -4.0266828889       -5.1311408405        1.0459389624
 C         -4.1338481784       -6.4666836044        1.3817686647
 C         -3.1727384083       -7.3745425270        0.9684179280
 C         -2.1012814703       -6.9355136658        0.2081146324
 C         -1.9891191843       -5.6036294354       -0.1397889441
 C         -3.9777528503       -2.5677555796       -0.3337232340
 C         -5.0502951133       -3.1118308058       -1.0380029460
 C         -6.1664275048       -2.3425697148       -1.3065000754
 C         -6.2308471943       -1.0254898528       -0.8825656761
 C         -5.1701021962       -0.4829483853       -0.1763646218
 C         -4.0515838106       -1.2437319669        0.0993874197
 C         -0.5812359540       -3.0381812059        0.7992677208
 C          0.6174762203       -2.3549707642        0.7858751843
 C          1.9539343080        0.9074811861       -0.0700254149
 C          0.6181514105        1.5249914122        0.0083940548
 C          0.1817946292        2.4267764810       -0.9573109585
 C         -1.1030721886        2.9284981815       -0.9214831292
 C         -1.9776942837        2.5593357136        0.1001189178
 N         -3.2937517526        3.0356792483        0.1079663213
 C         -4.0120279586        3.0539525623       -1.0941580825
 C         -4.9062275178        4.0856283206       -1.3756590184
 C         -5.6200469040        4.0816310342       -2.5584882045
 C         -5.4502621493        3.0595508235       -3.4781365511
 C         -4.5556205923        2.0373198408       -3.2064953653
 C         -3.8405580754        2.0294463172       -2.0252690857
 C         -3.8902418210        3.4303506211        1.3081155821
 C         -3.1223717103        4.0255698638        2.3098185728
 C         -3.7051860877        4.4074479995        3.5019380633
 C         -5.0599127942        4.2131418732        3.7162935672
 C         -5.8289123572        3.6296459077        2.7232271731
 C         -5.2540142211        3.2371258377        1.5302390132
 C         -1.5239655127        1.6995669634        1.1003766499
 C         -0.2472381145        1.1845220838        1.0463232532
 C          3.0865482547        1.6833003461       -0.1061254739
 C          4.3624209980        1.0954354114       -0.1028846206
 N          5.4569417911        1.8933774987       -0.1280484861
 C          6.6020327594        1.2747421403       -0.1005000290
 H         10.8249576103        1.5764889909       -0.0707051311
 H         11.9662737318       -0.6303111826        0.0171544355
 H         10.6617671437       -2.7029481133        0.0734290532
 H          8.1788154340       -2.6379679502        0.0462680933
 H          3.4079710712       -2.1785362551       -0.0441415427
 H          0.0434784034       -0.2991515665       -1.8288231405
 H         -2.0829828889       -1.5191558099       -1.8207778371
 H         -4.7713848788       -4.4231930681        1.3794233515
 H         -4.9696192544       -6.7989970714        1.9798007630
 H         -3.2580778218       -8.4165054079        1.2367766554
 H         -1.3505958066       -7.6373591517       -0.1246080247
 H         -1.1587866853       -5.2651297799       -0.7421045163
 H         -4.9985900700       -4.1364518164       -1.3761187234
 H         -6.9886522097       -2.7739351819       -1.8583544461
 H         -7.1010629658       -0.4254149526       -1.1005653735
 H         -5.2149599321        0.5380372953        0.1697321786
 H         -3.2265886711       -0.8172744410        0.6514826201
 H         -0.7587233822       -3.8074991189        1.5362462527
 H          1.3735210564       -2.5877131543        1.5217009008
 H          0.8490785319        2.7135906508       -1.7572412706
 H         -1.4438728851        3.6071438610       -1.6896864073
 H         -5.0339638234        4.8877434103       -0.6634520900
 H         -6.3090181842        4.8871075515       -2.7663639134
 H         -6.0109575816        3.0602660469       -4.4004371810
 H         -4.4205128986        1.2332735905       -3.9148476230
 H         -3.1514047465        1.2261278555       -1.8095313481
 H         -2.0679033945        4.1896221289        2.1432131338
 H         -3.0974976093        4.8687876231        4.2660967793
 H         -5.5127423463        4.5157173843        4.6480093700
 H         -6.8857944203        3.4705859871        2.8802891845
 H         -5.8624473744        2.7799113322        0.7630428465
 H         -2.1872160931        1.4268358853        1.9084408774
 H          0.0866808285        0.5030945626        1.8150303598
 H          3.0238465996        2.7608915888       -0.1094146433
