  79
       -120.89551898
 C          9.2803717902        2.1074040838        0.1800819202
 C          8.2207431291        2.4327646506       -0.6513910216
 C          7.0593374616        1.6862265652       -0.6295860665
 C          6.9394760974        0.5992884689        0.2372573228
 N          5.7629060144       -0.1561220876        0.2659842502
 C          5.8222800204       -1.5407691634        0.4513710999
 C          6.8621427302       -2.2856732499       -0.1065097509
 C          6.9159199998       -3.6529814375        0.0797775144
 C          5.9359899793       -4.3008984379        0.8145046691
 C          4.8993897172       -3.5665392897        1.3677015038
 C          4.8402749606       -2.1978533028        1.1941866507
 C          4.5251852388        0.4727164685        0.1049458022
 C          4.2948642270        1.7423654856        0.6381057356
 C          3.0701334990        2.3542942828        0.4805426144
 C          2.0289391659        1.7197911089       -0.1981610230
 C          0.7122418952        2.3470346429       -0.3395455004
 C          0.5891949026        3.7317895438       -0.5532606532
 C         -0.6764996399        4.3088802244       -0.6377619490
 C         -1.8074177796        3.5427347080       -0.5447078316
 C         -1.7152370412        2.1277272285       -0.3760838903
 C         -2.9124248222        1.3989943255       -0.2915242979
 N         -4.0956028509        1.9888563013       -0.0301283166
 C         -4.9791704680        1.0246988248        0.1402240367
 C         -6.3496100799        1.1578696213        0.5092490321
 C         -6.8927148056        2.4142994493        0.7801267382
 C         -8.2088370137        2.5355275726        1.1808443654
 C         -8.9790555799        1.3912977563        1.3202484873
 C         -8.4505945361        0.1414454836        1.0467631917
 C         -7.1268339304       -0.0191448440        0.6221349710
 C         -6.5531322005       -1.3121800537        0.2852995916
 C         -7.3219298262       -2.4727712967        0.2862585270
 C         -6.8078547511       -3.7047605499       -0.0725913226
 C         -5.4748541690       -3.8114885406       -0.4789750072
 C         -4.6745680381       -2.7042836659       -0.4888356365
 C         -5.1644178867       -1.4315695073       -0.0910158602
 C         -4.3892450727       -0.2713636120       -0.0782949300
 N         -3.0654702554       -0.0125988493       -0.3556935507
 C         -2.0592638101       -0.9074147855       -0.7307893612
 C         -1.4137748412       -0.7493818323       -1.9595502562
 C         -0.3917673509       -1.6069354046       -2.3152305956
 C          0.0025864176       -2.6237547297       -1.4573264293
 C         -0.6381801265       -2.7829277852       -0.2368216191
 C         -1.6640657076       -1.9349877967        0.1296089238
 C         -0.4226834475        1.5677653228       -0.2506322289
 C          2.2693543929        0.4525061784       -0.7338400079
 C          3.4939757903       -0.1600641126       -0.5923883114
 C          8.0078818561        0.2781435081        1.0751301723
 C          9.1677635981        1.0269805569        1.0401316896
 H         10.1874269213        2.6917741991        0.1576774051
 H          8.3023763629        3.2697090427       -1.3289639278
 H          6.2388152953        1.9331701949       -1.2870768834
 H          7.6199372584       -1.7849969860       -0.6911332586
 H          7.7242460307       -4.2180992011       -0.3602184004
 H          5.9797766820       -5.3701910605        0.9542544597
 H          4.1340885497       -4.0622158907        1.9464378989
 H          4.0376209121       -1.6264181620        1.6365902216
 H          5.0811432383        2.2368289751        1.1898497487
 H          2.9037860968        3.3253109433        0.9226260049
 H          1.4731782157        4.3411067687       -0.6597478840
 H         -0.7615183516        5.3763005023       -0.7836645788
 H         -2.7918200731        3.9757754850       -0.6111501148
 H         -6.2517996575        3.2754296824        0.6734916665
 H         -8.6307741519        3.5070281672        1.3897509042
 H        -10.0066813026        1.4702356466        1.6451487358
 H         -9.0917922240       -0.7160540357        1.1742749266
 H         -8.3631881940       -2.4258523648        0.5632517747
 H         -7.4405151906       -4.5791496950       -0.0554650614
 H         -5.0809258267       -4.7678097176       -0.7904112960
 H         -3.6554070847       -2.7890506988       -0.8279760933
 H         -1.7206863862        0.0492227742       -2.6184403682
 H          0.1002974052       -1.4841885868       -3.2692352995
 H          0.8073515596       -3.2868086754       -1.7364220328
 H         -0.3296493898       -3.5691949010        0.4362244044
 H         -2.1603022933       -2.0464892224        1.0827596246
 H         -0.3141653556        0.5249601602       -0.0032145414
 H          1.4900594537       -0.0464136514       -1.2901859690
 H          3.6666783860       -1.1329357637       -1.0289649082
 H          7.9170763732       -0.5555782382        1.7558519438
 H          9.9864108234        0.7699640210        1.6958903908
