  92
  -158.259769280000       0.416383248006698      !
 C         -6.3214314455       -2.9288385419       -2.8553800738
 C         -5.1293728163       -2.2364787327       -2.9173638305
 C         -4.1505313188       -2.4364569285       -1.9562258460
 C         -4.3517606731       -3.3232267424       -0.9051245615
 C         -5.5488428983       -4.0518625543       -0.8762718381
 C         -6.5228637493       -3.8472232303       -1.8365085397
 O         -5.8098056954       -5.0060535254        0.0735371954
 C         -4.8628491500       -5.2087424862        1.0451597448
 C         -5.1540817326       -6.1498768616        2.0155121390
 C         -4.2648051871       -6.3835630899        3.0534110753
 C         -3.0967129253       -5.6517713851        3.1246110990
 C         -2.7994120274       -4.7086568369        2.1528926371
 C         -3.6597980790       -4.4918035385        1.0835732031
 N         -3.3894029500       -3.5492139359        0.0858439649
 C         -2.1726122849       -2.8442965530        0.0801163404
 C         -0.9566507819       -3.5320785149        0.0083751438
 C          0.2190359827       -2.8241542419       -0.0081138815
 C          0.2205533080       -1.4253694525        0.0273456906
 C         -0.9977070762       -0.7197087459        0.0917629526
 C         -2.1800737360       -1.4593595845        0.1329528248
 C         -0.9945877783        0.7363168561        0.0848515981
 C         -2.1730544288        1.4813525968        0.1323091181
 C         -2.1612521313        2.8655740060        0.0608690767
 N         -3.3754782260        3.5742588007        0.0745165141
 C         -3.6334686248        4.5257361342        1.0674975951
 C         -2.7505282287        4.7676000236        2.1128367559
 C         -3.0368419938        5.7186562711        3.0801002890
 C         -4.2160528170        6.4341045761        3.0287712789
 C         -5.1267658375        6.1757672558        2.0157232937
 C         -4.8465433335        5.2265288544        1.0499398057
 O         -5.8148267613        4.9993738025        0.1051330998
 C         -5.5692893038        4.0294569372       -0.8328323163
 C         -6.5695174081        3.7907713688       -1.7577407443
 C         -6.3852756530        2.8554069472       -2.7643122294
 C         -5.1837660012        2.1822451908       -2.8518343517
 C         -4.1788801671        2.4164740957       -1.9260524496
 C         -4.3628067879        3.3180227309       -0.8841698352
 C         -0.9436856300        3.5472535733       -0.0373362251
 C          0.2291179837        2.8343890403       -0.0549301685
 C          0.2258501711        1.4363126365        0.0018514592
 C          1.4772955551        0.7182959374       -0.0309054870
 N          2.6061488350        1.4011565860       -0.0753271981
 C          3.7552861962        0.7110945833       -0.0988009973
 C          4.9842210978        1.3955600332       -0.1551932316
 C          6.1709960918        0.7060448289       -0.1756206522
 C          7.4323550751        1.4413086874       -0.3049439037
 C          8.4016002948        1.1147005052       -1.2572862517
 N          9.5358683590        1.7788292236       -1.3698472875
 C          9.7216837314        2.7933502082       -0.5438874336
 N          8.8691457517        3.2168371941        0.3711950536
 C          7.7376608773        2.5471364591        0.4908397797
 C          6.1697782289       -0.7184280731       -0.1160786811
 C          7.4336804001       -1.4575139089       -0.0464769006
 C          8.4450352526       -1.1353964726        0.8627645301
 N          9.5818643294       -1.8017578144        0.9229278692
 C          9.7286966677       -2.8143373345        0.0866743305
 N          8.8354523861       -3.2336445183       -0.7906020248
 C          7.7010332540       -2.5614753012       -0.8581448698
 C          4.9810178162       -1.4037524815       -0.0781220902
 C          3.7532107723       -0.7148169959       -0.0723144469
 N          2.6016872046       -1.4001322197       -0.0310156282
 C          1.4749111007       -0.7126354122       -0.0125184908
 H         -7.0885428806       -2.7727196751       -3.5968832425
 H         -4.9450769796       -1.5363189063       -3.7172825395
 H         -3.2158987890       -1.9043486066       -2.0361657168
 H         -7.4311949786       -4.4243887699       -1.7707761624
 H         -6.0871273240       -6.6851808180        1.9427040204
 H         -4.4978323954       -7.1223933578        3.8034418466
 H         -2.4060174573       -5.8029744928        3.9396401230
 H         -1.8923343804       -4.1307321354        2.2339775569
 H         -0.9552990297       -4.6102332954       -0.0453931371
 H          1.1712355782       -3.3269737417       -0.0669722281
 H         -3.1363555697       -0.9671737968        0.2069617872
 H         -3.1298645966        0.9939738035        0.2278178150
 H         -1.8341560632        4.2027356724        2.1795606274
 H         -2.3282382168        5.8895130072        3.8756827006
 H         -4.4406614770        7.1792669278        3.7751264226
 H         -6.0686171805        6.6974564133        1.9591341960
 H         -7.4842355591        4.3554536148       -1.6747757364
 H         -7.1727623599        2.6717504761       -3.4776050095
 H         -5.0130147651        1.4697832916       -3.6438935438
 H         -3.2382802840        1.8983602005       -2.0258952946
 H         -0.9385630059        4.6243531316       -0.1087610178
 H          1.1826594068        3.3325297016       -0.1297636951
 H          4.9657561786        2.4734923091       -0.2090027847
 H          8.2501088533        0.3069996559       -1.9629064656
 H         10.6563747127        3.3304261126       -0.6307423115
 H          7.0539012529        2.8929743552        1.2562673560
 H          8.3267580839       -0.3286562813        1.5758344493
 H         10.6650282777       -3.3537738084        0.1308843383
 H          6.9826992539       -2.9048974838       -1.5923763389
 H          4.9616394478       -2.4816744793       -0.0240930232
  92
  -158.259762650000       0.413472196837402      !
 C         -6.3060651242       -2.1524248299        3.4503610071
 C         -5.0996513641       -1.4881440615        3.3630171997
 C         -4.1172333999       -1.9285216435        2.4898117692
 C         -4.3288804212       -3.0335053033        1.6733320717
 C         -5.5390026779       -3.7280523837        1.8058753323
 C         -6.5168617278       -3.2837410310        2.6773950171
 O         -5.8102471616       -4.8777979589        1.1096383206
 C         -4.8610608898       -5.3208912166        0.2241092493
 C         -5.1631137913       -6.4637732807       -0.4935504577
 C         -4.2746712137       -6.9521728676       -1.4391218873
 C         -3.0969267539       -6.2731384602       -1.6777333671
 C         -2.7888737862       -5.1283051865       -0.9591253953
 C         -3.6473561727       -4.6502724071        0.0234731988
 N         -3.3650267180       -3.5017284692        0.7718914915
 C         -2.1526190955       -2.8123743580        0.5971279121
 C         -0.9299918438       -3.4621348101        0.7982766002
 C          0.2407726225       -2.7673464060        0.6230475540
 C          0.2320141884       -1.4121277998        0.2748565601
 C         -0.9929639404       -0.7389377557        0.0941062264
 C         -2.1699898402       -1.4736782528        0.2375874247
 C         -1.0017050463        0.6871953106       -0.1989453021
 C         -2.1875177714        1.4110731650       -0.3276930750
 C         -2.1830591863        2.7814762817       -0.5349470136
 N         -3.4011157259        3.4796143872       -0.6102872547
 C         -4.3153306772        3.4403961685        0.4491857177
 C         -4.0665654621        2.7497402288        1.6294867458
 C         -4.9999965724        2.7297888351        2.6542290153
 C         -6.1932255861        3.4109448041        2.5264173048
 C         -6.4400601013        4.1398105700        1.3732070695
 C         -5.5110899961        4.1649664187        0.3489449511
 O         -5.8139619476        4.9437665359       -0.7386027815
 C         -4.9164485294        4.9601355259       -1.7757868266
 C         -5.2524596762        5.7190545562       -2.8818776073
 C         -4.4165180766        5.7532748311       -3.9875744209
 C         -3.2576755176        5.0033871524       -3.9863239606
 C         -2.9152045004        4.2433713315       -2.8785753954
 C         -3.7198223300        4.2322297706       -1.7457513290
 C         -0.9674979886        3.4641036697       -0.6515418816
 C          0.2102963190        2.7661212565       -0.5560300763
 C          0.2154712311        1.3863417743       -0.3232714389
 C          1.4727010904        0.6888538016       -0.1982981600
 N          2.5964167082        1.3603485777       -0.3678708760
 C          3.7512242955        0.6910084720       -0.2425284968
 C          4.9748617733        1.3612088221       -0.4309732744
 C          6.1671349721        0.6909856240       -0.3146403400
 C          7.4224841988        1.3959732658       -0.5895768382
 C          8.3928897025        0.8949965513       -1.4615493841
 N          9.5210625855        1.5329967097       -1.7076734589
 C          9.6997387318        2.6923217872       -1.0994645408
 N          8.8453760178        3.2816011503       -0.2830510421
 C          7.7197292432        2.6400012513       -0.0296310451
 C          6.1768955709       -0.6935436712        0.0253389115
 C          7.4463297471       -1.3962070343        0.2333949239
 C          8.4597389365       -0.8964452679        1.0555246439
 N          9.6017077122       -1.5314821715        1.2374446198
 C          9.7515748645       -2.6869750201        0.6145006615
 N          8.8567931013       -3.2753334100       -0.1581080245
 C          7.7175256814       -2.6360710241       -0.3484982824
 C          4.9934803156       -1.3668401947        0.2002767880
 C          3.7601224129       -0.7008609360        0.0681147623
 N          2.6137554509       -1.3752271077        0.2373418738
 C          1.4813153758       -0.7091885138        0.1078069786
 H         -7.0766665948       -1.8092011467        4.1219472237
 H         -4.9075575233       -0.6216208031        3.9762786555
 H         -3.1720795233       -1.4103484275        2.4553705309
 H         -7.4359256414       -3.8440763969        2.7388285998
 H         -6.1047927661       -6.9521798743       -0.3005628937
 H         -4.5161128951       -7.8464506417       -1.9911921504
 H         -2.4065027777       -6.6240618296       -2.4289937287
 H         -1.8742630953       -4.5985398029       -1.1736495379
 H         -0.9187428426       -4.4990021348        1.0983306125
 H          1.1976154542       -3.2436063013        0.7668785958
 H         -3.1302098262       -1.0136672405        0.0691204392
 H         -3.1441936771        0.9181779313       -0.2649084959
 H         -3.1296644232        2.2319395973        1.7599999726
 H         -4.7784352618        2.1801957370        3.5558759450
 H         -6.9257439200        3.3927282829        3.3174770604
 H         -7.3494427782        4.7055171643        1.2490488077
 H         -6.1779238646        6.2717045255       -2.8587714317
 H         -4.6836046221        6.3519567482       -4.8437555711
 H         -2.6092806937        4.9980862982       -4.8487861708
 H         -2.0162922678        3.6476756169       -2.9006793615
 H         -0.9675161516        4.5331315834       -0.8014664898
 H          1.1622801162        3.2662884673       -0.6367406239
 H          4.9477341159        2.4068626665       -0.6976052325
 H          8.2463586526       -0.0366513677       -1.9941861617
 H         10.6295758431        3.2092025022       -1.2941432891
 H          7.0350846328        3.1244051850        0.6556561777
 H          8.3402718090        0.0340443549        1.5969485515
 H         10.6912549210       -3.2026953401        0.7584986417
 H          6.9978844779       -3.1201515217       -0.9971971559
 H          4.9827364561       -2.4127138594        0.4671386963
  92
  -158.258923540000       0.170144555155900      !
 C         -4.1677748498       -5.8969929243        3.9476973334
 C         -3.0354513536       -5.1088416577        3.9053315268
 C         -2.7680984486       -4.3243296946        2.7938900492
 C         -3.6232708850       -4.3260808439        1.6988084658
 C         -4.7898754890       -5.0985768614        1.7691044034
 C         -5.0511686264       -5.8808973663        2.8789556953
 O         -5.7279705388       -5.1074989294        0.7681965587
 C         -5.4841963598       -4.3300687702       -0.3355276371
 C         -6.4334609866       -4.3608089660       -1.3405699167
 C         -6.2462574038       -3.6306334781       -2.5044441579
 C         -5.0944437194       -2.8868256442       -2.6605353215
 C         -4.1399408537       -2.8517288692       -1.6552464502
 C         -4.3265505639       -3.5511803835       -0.4692937616
 N         -3.3839619371       -3.5437807485        0.5645221595
 C         -2.1775253122       -2.8308102034        0.4332435842
 C         -0.9558212482       -3.5112972262        0.4531841428
 C          0.2121390730       -2.8042389109        0.3179730216
 C          0.1991065186       -1.4150557452        0.1519383468
 C         -1.0250248924       -0.7165191937        0.1234099339
 C         -2.2006775889       -1.4537672169        0.2780038958
 C         -1.0299521364        0.7301506101       -0.0489448616
 C         -2.2118907736        1.4710656901       -0.1021382099
 C         -2.1981518911        2.8496987550       -0.2461164975
 N         -3.4098081821        3.5644954897       -0.2677438584
 C         -4.2741774224        3.5386887541        0.8323822795
 C         -3.9911012267        2.8213229812        1.9882712207
 C         -4.8728264967        2.8179371117        3.0583898505
 C         -6.0467324337        3.5408788874        2.9982951996
 C         -6.3271558877        4.2923175660        1.8672165444
 C         -5.4498514438        4.3010315706        0.7983308454
 O         -5.7808492904        5.1006880430       -0.2658942124
 C         -4.9204975297        5.1218622884       -1.3342388730
 C         -5.2739131173        5.9205183015       -2.4062539371
 C         -4.4746253157        5.9665966456       -3.5384714207
 C         -3.3342132610        5.1914159729       -3.5970126918
 C         -2.9745197050        4.3906928597       -2.5237631255
 C         -3.7431705650        4.3630277811       -1.3666204962
 C         -0.9802572579        3.5276976348       -0.3608874008
 C          0.1926221913        2.8163468048       -0.3314889451
 C          0.1895821855        1.4259333142       -0.1757585966
 C          1.4444975881        0.7139347014       -0.1480967722
 N          2.5693336345        1.3929388518       -0.2771624560
 C          3.7212376518        0.7080869716       -0.2484032769
 C          4.9462668385        1.3876507213       -0.3894768363
 C          6.1354225974        0.7025511460       -0.3640654179
 C          7.3926604376        1.4257410924       -0.5760883199
 C          8.3511221631        1.0180663592       -1.5074921639
 N          9.4835255182        1.6702704367       -1.6896966980
 C          9.6775606045        2.7523697915       -0.9572461645
 N          8.8337439048        3.2548953904       -0.0741164434
 C          7.7047836873        2.5979145211        0.1159015668
 C          6.1410436993       -0.7103984160       -0.1732325059
 C          7.4086711221       -1.4385679750       -0.0643572426
 C          8.4355507768       -1.0422064407        0.7961496526
 N          9.5750821653       -1.7008004337        0.8888499935
 C          9.7090974648       -2.7774024753        0.1351146813
 N          8.8006684263       -3.2678384736       -0.6886280455
 C          7.6636412951       -2.6049161451       -0.7886030357
 C          4.9563501588       -1.3920323050       -0.0480935126
 C          3.7259333272       -0.7086038209       -0.0837286838
 N          2.5786849497       -1.3896963133        0.0449535201
 C          1.4491536823       -0.7070396675        0.0140071421
 H         -4.3770040538       -6.5137377259        4.8071751880
 H         -2.3494668393       -5.0930853887        4.7380962020
 H         -1.8884515508       -3.6999980639        2.7825784403
 H         -5.9558036082       -6.4674042136        2.8877110369
 H         -7.3106390070       -4.9702839280       -1.1937611619
 H         -6.9933120812       -3.6586064979       -3.2816504139
 H         -4.9227262804       -2.3289609894       -3.5681642917
 H         -3.2352195478       -2.2837030059       -1.8043419475
 H         -0.9451909024       -4.5848354195        0.5665331071
 H          1.1691974529       -3.3011224871        0.3255970647
 H         -3.1614928999       -0.9645686202        0.2902722998
 H         -3.1717995884        0.9840024785       -0.0395553905
 H         -3.0678026662        2.2687731119        2.0624792168
 H         -4.6272809939        2.2461082595        3.9399683671
 H         -6.7385606800        3.5371595721        3.8254109559
 H         -7.2226390230        4.8884590806        1.7957427388
 H         -6.1831538626        6.4955567914       -2.3355332069
 H         -4.7552480272        6.5962249025       -4.3676912512
 H         -2.7133746963        5.1984229421       -4.4795491077
 H         -2.0904453849        3.7763666344       -2.5918197371
 H         -0.9751606155        4.6024154417       -0.4625698835
 H          1.1471836657        3.3110279013       -0.4153690270
 H          4.9221779859        2.4557231799       -0.5437413488
 H          8.1934615740        0.1522804434       -2.1390280786
 H         10.6106019070        3.2802766824       -1.0999849009
 H          7.0281934287        3.0089556736        0.8550019686
 H          8.3293651495       -0.1801412402        1.4433450080
 H         10.6467322744       -3.3117449751        0.2057619352
 H          6.9327467259       -3.0053713705       -1.4803321712
 H          4.9425633193       -2.4601854902        0.1069716972
