  92
  -157.727156182800       0.604263493036062      !
 C         -4.3319058308       -6.5489862514        2.4646618298
 C         -3.1991752064       -5.7786771208        2.6340104537
 C         -2.8843582861       -4.7840509997        1.7208577062
 C         -3.6913589347       -4.5526047249        0.6137401823
 C         -4.8595540200       -5.3130671315        0.4734722640
 C         -5.1682490744       -6.3052723410        1.3857800804
 O         -5.7534700421       -5.1073617940       -0.5465855279
 C         -5.4625403204       -4.1210570210       -1.4546567777
 C         -6.3674265005       -3.9357520922       -2.4837346948
 C         -6.1303905674       -2.9827955605       -3.4627609912
 C         -4.9732479714       -2.2325786983       -3.4129114078
 C         -4.0631411433       -2.4137161986       -2.3824707320
 C         -4.3005530640       -3.3411704630       -1.3754932984
 N         -3.4035704841       -3.5551922890       -0.3233904792
 C         -2.1929151114       -2.8407300682       -0.2533355280
 C         -0.9729017620       -3.5210259717       -0.3225160533
 C          0.1994861799       -2.8112111261       -0.2591581891
 C          0.1930038599       -1.4175978836       -0.1351931192
 C         -1.0290714457       -0.7178491535       -0.0707838215
 C         -2.2099690137       -1.4611365765       -0.1217538515
 C         -1.0272093088        0.7332471633        0.0592161265
 C         -2.2060840497        1.4791918356        0.1100543146
 C         -2.1867692049        2.8577052143        0.2545376467
 N         -3.3966871310        3.5718343578        0.3295793728
 C         -4.3078238487        3.3269615620        1.3629935618
 C         -4.0746807715        2.3841990382        2.3568085136
 C         -5.0018696206        2.1676015448        3.3647823037
 C         -6.1724123139        2.8973157817        3.4055040761
 C         -6.4039941622        3.8682763271        2.4430895125
 C         -5.4812778048        4.0898702838        1.4372335084
 O         -5.7663009748        5.0946469067        0.5479805902
 C         -4.8605506124        5.3284647367       -0.4554930358
 C         -5.1676330975        6.3340595514       -1.3535184911
 C         -4.3201381042        6.6059392015       -2.4168784142
 C         -3.1779018292        5.8498695758       -2.5857772698
 C         -2.8645996957        4.8419443046       -1.6867055204
 C         -3.6825731643        4.5826795069       -0.5938790314
 C         -0.9653644125        3.5344467117        0.3339949152
 C          0.2054752172        2.8224148381        0.2656162096
 C          0.1963463324        1.4298597714        0.1306424804
 C          1.4492205403        0.7168568312        0.0639124626
 N          2.5782717518        1.3983198257        0.1256560234
 C          3.7281709509        0.7125256423        0.0612337985
 C          4.9578406773        1.3961639043        0.1156050969
 C          6.1451016753        0.7105021686        0.0494394404
 C          7.4099987584        1.4511900320        0.0448291490
 C          8.4080424010        1.2363172757       -0.9091620847
 N          9.5469649146        1.9024557630       -0.9045758712
 C          9.7086326366        2.8084936006        0.0430693139
 N          8.8271709246        3.1251602257        0.9743180472
 C          7.6913525495        2.4527068016        0.9765295717
 C          6.1431177942       -0.7114182911       -0.0555059375
 C          7.4051865367       -1.4571054213       -0.0456466487
 C          8.3936977664       -1.2555081229        0.9209248623
 N          9.5284578130       -1.9286960228        0.9239038126
 C          9.6954515486       -2.8277452647       -0.0294966963
 N          8.8237333492       -3.1299784971       -0.9745286114
 C          7.6917878909       -2.4510760328       -0.9836188760
 C          4.9544362021       -1.3941368353       -0.1241701430
 C          3.7263957860       -0.7076512672       -0.0700939095
 N          2.5749707815       -1.3908884854       -0.1335942653
 C          1.4475190186       -0.7069807042       -0.0708142714
 H         -4.5778319631       -7.3279740662        3.1686160290
 H         -2.5498634359       -5.9408710748        3.4804189627
 H         -2.0053350748       -4.1782958409        1.8760204723
 H         -6.0721439399       -6.8732785275        1.2348680780
 H         -7.2498512925       -4.5549439742       -2.5032723296
 H         -6.8431129792       -2.8434987822       -4.2599723286
 H         -4.7626882902       -1.5009510047       -4.1776830979
 H         -3.1530807109       -1.8348420873       -2.3725579762
 H         -0.9666867261       -4.5949062396       -0.4329143685
 H          1.1555492320       -3.3070751612       -0.3136967610
 H         -3.1706424122       -0.9768637897       -0.0495158288
 H         -3.1675755561        0.9978508756        0.0299476519
 H         -3.1552003710        1.8204184388        2.3544325173
 H         -4.7944236289        1.4241470612        4.1189063668
 H         -6.8993700783        2.7289122948        4.1839212550
 H         -7.2958236654        4.4739094423        2.4583185245
 H         -6.0793485148        6.8898269992       -1.2042303089
 H         -4.5649201720        7.3954437591       -3.1093743840
 H         -2.5194714592        6.0335247171       -3.4207026457
 H         -1.9781241683        4.2473994144       -1.8425686971
 H         -0.9563723920        4.6069411095        0.4567083121
 H          1.1625421213        3.3156483893        0.3262501022
 H          4.9399521695        2.4732509695        0.1843076779
 H          8.2782495080        0.5208054726       -1.7119549531
 H         10.6467301809        3.3465617134        0.0521140807
 H          6.9832334907        2.7081549261        1.7551901301
 H          8.2592157804       -0.5446304420        1.7270645174
 H         10.6294003627       -3.3730977858       -0.0309860328
 H          6.9916856682       -2.6940061343       -1.7734937390
 H          4.9344498764       -2.4711469580       -0.1937134090
  92
  -157.726756198100       0.395736506963938      !
 C         -6.1906390910       -2.2230885262       -3.6641030471
 C         -4.9973362117       -1.5429662047       -3.5311754995
 C         -4.0608946727       -1.9452118031       -2.5913968533
 C         -4.3069923630       -3.0280051733       -1.7555366314
 C         -5.5038641503       -3.7367445174       -1.9285538183
 C         -6.4355307043       -3.3301650225       -2.8662845583
 O         -5.8052264574       -4.8641038564       -1.2081644295
 C         -4.9010922997       -5.2708944019       -0.2600490519
 C         -5.2335907629       -6.3894598337        0.4818338535
 C         -4.3899351796       -6.8397632129        1.4858898047
 C         -3.2263557043       -6.1483305531        1.7561336879
 C         -2.8877364324       -5.0275972495        1.0135816730
 C         -3.7011615920       -4.5875271540       -0.0234387625
 N         -3.3882974986       -3.4617134924       -0.7926669315
 C         -2.1727250548       -2.7811191942       -0.6011052436
 C         -0.9544795912       -3.4495907060       -0.7616575136
 C          0.2204915475       -2.7634858083       -0.5817382950
 C          0.2198249120       -1.4021683808       -0.2582062443
 C         -1.0004087570       -0.7146729755       -0.1012194901
 C         -2.1831073202       -1.4368598545       -0.2638267086
 C         -0.9976686065        0.7113792238        0.1927799433
 C         -2.1774304191        1.4405625908        0.3430057744
 C         -2.1631907554        2.8095960635        0.5594693193
 N         -3.3771991422        3.5104897417        0.6676223982
 C         -3.6783430501        4.2388062344        1.8238001625
 C         -2.8415600538        4.2523252149        2.9330464379
 C         -3.1698881430        4.9857752141        4.0627959964
 C         -4.3461064604        5.7063941101        4.1103142711
 C         -5.2120252758        5.6703306054        3.0280543088
 C         -4.8898476113        4.9384055996        1.8998684737
 O         -5.8162493414        4.9192627492        0.8883125873
 C         -5.5299180020        4.1616601725       -0.2184209806
 C         -6.4890899049        4.1274011683       -1.2142614511
 C         -6.2610451871        3.4182792739       -2.3835259745
 C         -5.0565621832        2.7674909928       -2.5570990771
 C         -4.0927726284        2.7971696792       -1.5611273308
 C         -4.3220142941        3.4659172387       -0.3643135249
 C         -0.9428320798        3.4865243269        0.6558660401
 C          0.2299652575        2.7827062929        0.5412349524
 C          0.2248925993        1.4030679551        0.3079437445
 C          1.4769163881        0.6966700917        0.1807626227
 N          2.6063178038        1.3644108259        0.3262151423
 C          3.7557148170        0.6843176253        0.2095403539
 C          4.9856212330        1.3552495480        0.3478681947
 C          6.1724886125        0.6747438209        0.2358808663
 C          7.4379200079        1.4101500011        0.3147799378
 C          8.4476052030        1.2788251495       -0.6424842570
 N          9.5853725520        1.9422484441       -0.5672780436
 C          9.7348146204        2.7629432180        0.4574741300
 N          8.8432942506        2.9957565132        1.4032688183
 C          7.7080036476        2.3253963375        1.3339547686
 C          6.1693568204       -0.7313090780       -0.0000750943
 C          7.4294077305       -1.4795437789       -0.0310188359
 C          8.4003349899       -1.3605129124        0.9672046709
 N          9.5338063233       -2.0345656773        0.9366592733
 C          9.7171449361       -2.8540574676       -0.0836432112
 N          8.8628800211       -3.0757795167       -1.0656760276
 C          7.7321329014       -2.3945420960       -1.0410429678
 C          4.9803851608       -1.3996188739       -0.1548974945
 C          3.7531568261       -0.7163165226       -0.0590617999
 N          2.6012425719       -1.3856225091       -0.2090355397
 C          1.4744023497       -0.7072021511       -0.0968066478
 H         -6.9250292759       -1.9108617753       -4.3892551112
 H         -4.7789351622       -0.6944360473       -4.1607437901
 H         -3.1239258562       -1.4160013520       -2.5200291425
 H         -7.3455873686       -3.9007539021       -2.9597277273
 H         -6.1623651603       -6.8902994128        0.2605574244
 H         -4.6548460249       -7.7154258243        2.0566395200
 H         -2.5714927685       -6.4702676069        2.5509330261
 H         -1.9852834669       -4.4865425717        1.2506471982
 H         -0.9503032604       -4.4934340182       -1.0367652814
 H          1.1745789733       -3.2514017076       -0.7026973091
 H         -3.1419236081       -0.9624394275       -0.1304261611
 H         -3.1372503216        0.9520941438        0.2951515424
 H         -1.9286701097        3.6780981289        2.9205180854
 H         -2.4964417997        4.9828185432        4.9058404742
 H         -4.6031358039        6.2834356748        4.9842255539
 H         -6.1507889279        6.2004380478        3.0404945763
 H         -7.4068024537        4.6705560238       -1.0553746738
 H         -7.0168543161        3.3924048545       -3.1521186352
 H         -4.8513779697        2.2323303960       -3.4712206666
 H         -3.1484940797        2.3028421582       -1.7257999356
 H         -0.9351240761        4.5551069348        0.8086501938
 H          1.1856201302        3.2774672575        0.6113831727
 H          4.9690013988        2.4212129748        0.5170431531
 H          8.3271534428        0.6353777623       -1.5054425633
 H         10.6721386556        3.2984402498        0.5231103194
 H          6.9916133252        2.5116757535        2.1245844759
 H          8.2509488736       -0.7172552254        1.8258031050
 H         10.6509377399       -3.3989292908       -0.1120828626
 H          7.0463915831       -2.5730065169       -1.8601569258
 H          4.9591876339       -2.4652966939       -0.3254610998
