  99
       -151.61164685
 C         -9.5287884096       -2.5769955549       -4.0505817584
 C         -9.8777910790       -1.3007416801       -3.6417311464
 C         -9.1700583382       -0.6763317516       -2.6315374136
 C         -8.0971536888       -1.3174652435       -2.0172212534
 C         -7.3439646242       -0.6578249458       -0.9395112041
 C         -8.0066537697        0.0653093436        0.0465257718
 C         -7.3049571285        0.6887133076        1.0726848939
 C         -8.0168645413        1.4563983260        2.1060053373
 C         -9.2040229002        0.9793083930        2.6558883219
 C         -9.8718063868        1.7049754442        3.6246688539
 C         -9.3679802146        2.9209116574        4.0551437013
 C         -8.1890702463        3.4053470471        3.5136472863
 C         -7.5166289070        2.6784114195        2.5491009791
 C         -5.9181487863        0.5812723441        1.1050254614
 C         -5.2394905519       -0.1363714562        0.1281843240
 C         -3.7661746970       -0.2433122299        0.1653227229
 C         -2.9785947083        0.8955191141       -0.0557566303
 C         -3.5567107940        2.1618879961       -0.3356644568
 C         -2.7835116243        3.2653728789       -0.5245133622
 C         -1.3800378323        3.1713620721       -0.4427062813
 C         -0.7849308097        1.9717643685       -0.2017905414
 C         -1.5533721112        0.7910997215       -0.0210901130
 C         -0.9514974124       -0.4560864474        0.2036231733
 C          0.5214256729       -0.5558455799        0.2074549143
 C          1.2192224748       -0.8460196335        1.3769781615
 C          2.5991830292       -0.8692397220        1.3825053916
 C          3.3138312259       -0.5970312153        0.2173991565
 C          4.7674437508       -0.5571907405        0.2723564394
 N          5.5096180612       -1.4115432906        0.9263572706
 C          6.7966793954       -1.0242722314        0.7168964711
 C          7.9840110603       -1.6564736562        1.1793838927
 C          7.9309791804       -2.8270729170        1.9433186531
 C          9.0883185865       -3.4422136780        2.3496902325
 C         10.3176489908       -2.8918197159        1.9922863054
 C         10.3813779842       -1.7378979296        1.2470031778
 C          9.2210546865       -1.0747363497        0.8188376848
 C          9.2548009946        0.1626356790        0.0586186407
 C         10.4628243481        0.8046454630       -0.2489277161
 C         10.5024423504        1.9986045050       -0.9289768091
 C          9.3202337221        2.6200504775       -1.3182915051
 C          8.1158343188        2.0209704113       -1.0441678416
 C          8.0550213242        0.7869056503       -0.3810456878
 C          6.8350017408        0.1191164112       -0.0793604647
 N          5.5197194700        0.4048052310       -0.3685325010
 C          4.9748344555        1.4399382803       -1.1518790218
 C          4.0837397670        2.3379035396       -0.5754947591
 C          3.4947391874        3.3156983902       -1.3559974528
 C          3.7936132839        3.4046051061       -2.7051433175
 C          4.6863289551        2.5127388899       -3.2774274937
 C          5.2745865301        1.5262962882       -2.5081341679
 C          2.6165226628       -0.3629160760       -0.9663854491
 C          1.2372297333       -0.3390203294       -0.9667688197
 C         -1.7387554050       -1.5961378239        0.4157425851
 C         -1.1597294864       -2.8771798358        0.6147358921
 C         -1.9338122132       -3.9729702959        0.8410949018
 C         -3.3372590066       -3.8547639123        0.8879300085
 C         -3.9322784982       -2.6493117398        0.6778009232
 C         -3.1639450603       -1.4851117458        0.4126240711
 C         -5.9569649153       -0.7525810578       -0.8895421618
 C         -7.7515670392       -2.5990390215       -2.4392882907
 C         -8.4641128389       -3.2239466678       -3.4457550136
 H        -10.0838176547       -3.0650746066       -4.8380653280
 H        -10.7047223645       -0.7894614083       -4.1132506515
 H         -9.4367970890        0.3256948967       -2.3275944705
 H         -9.0833830337        0.1441135034        0.0148245154
 H         -9.5934574985        0.0238023093        2.3350894686
 H        -10.7889289915        1.3201922654        4.0468231383
 H         -9.8917574443        3.4884484119        4.8101572355
 H         -7.7930981247        4.3549985167        3.8435010626
 H         -6.6048178829        3.0684138389        2.1198691073
 H         -5.3601734301        1.0373677952        1.9100536239
 H         -4.6321695023        2.2342686502       -0.4011627763
 H         -3.2385855223        4.2218753322       -0.7365839619
 H         -0.7817049327        4.0607006244       -0.5778916327
 H          0.2912610990        1.9022639391       -0.1423963401
 H          0.6696745680       -1.0320977565        2.2885119977
 H          3.1450942234       -1.0813697229        2.2888056568
 H          6.9585418177       -3.2242451259        2.1895493717
 H          9.0525352201       -4.3474413777        2.9376825160
 H         11.2318219634       -3.3762693768        2.3041052942
 H         11.3553895683       -1.3511290939        0.9922585498
 H         11.3973822357        0.3641984576        0.0587385914
 H         11.4528449989        2.4625041812       -1.1483532710
 H          9.3481593497        3.5714001820       -1.8287528889
 H          7.2010756944        2.5163259729       -1.3292129498
 H          3.8560181567        2.2596179419        0.4773260900
 H          2.8004419623        4.0101930029       -0.9075491776
 H          3.3310228992        4.1680081563       -3.3119188081
 H          4.9199504040        2.5792638159       -4.3294266287
 H          5.9643278880        0.8196043416       -2.9464922557
 H          3.1505660032       -0.2094042488       -1.8921142471
 H          0.7011779678       -0.1489090646       -1.8855078099
 H         -0.0843026461       -2.9679404264        0.5807822871
 H         -1.4788613627       -4.9409760337        0.9912689753
 H         -3.9356392422       -4.7311853328        1.0899015650
 H         -5.0078226558       -2.5593605633        0.7158812072
 H         -5.4242159114       -1.2878861864       -1.6622690567
 H         -6.9312355087       -3.1147440849       -1.9609776261
 H         -8.1895017596       -4.2210321372       -3.7584873581
