99
 energy: -151.549049715900 gnorm: 0.000073870085 xtb: 6.7.1 (edcfbbe)
C           -9.74274652688461       -3.56646612324080       -3.08993883930067
C          -10.10968584862266       -2.23591093806797       -2.97759761833488
C           -9.36108245022630       -1.37115330531898       -2.20112238755936
C           -8.22883776770459       -1.82300391391426       -1.52791451689062
C           -7.43179777170728       -0.90803496571405       -0.69608322853374
C           -8.05598978540732        0.02623717656928        0.12510179109911
C           -7.30892031850514        0.89230670269467        0.91805017095439
C           -7.97620323567089        1.87942939838457        1.78101711321626
C           -9.11817599650536        1.53945987287973        2.50189325477839
C           -9.74422504130892        2.47137658048406        3.30855579330167
C           -9.24313898891424        3.75878246268393        3.40409175130302
C           -8.10879254116985        4.10781989884997        2.69057789581058
C           -7.47818581480042        3.17591323096539        1.88761832606315
C           -5.92207165786283        0.81549120671756        0.88285805630677
C           -5.27400012834138       -0.11329097270018        0.06890436491396
C           -3.81330833596763       -0.18771913121685        0.04378207572401
C           -3.04947121683098        0.97580825079341       -0.27959262890638
C           -3.66261190151264        2.17458375200970       -0.65333161559741
C           -2.92099695341880        3.33256403546175       -0.87409045462580
C           -1.55317097073381        3.30912872711425       -0.71369116113391
C           -0.91188971774320        2.11283890180113       -0.39719153300179
C           -1.62498083383231        0.92347580908392       -0.23384441610081
C           -0.96868247469318       -0.32546001531179        0.01645093468996
C            0.48366963067270       -0.39015861217663        0.02606851820983
C            1.17811305496146       -0.93620948981400        1.11504697776260
C            2.55223657418931       -0.95613424287091        1.13943724620485
C            3.29653474992989       -0.43895291484621        0.07347423695405
C            4.74053788504322       -0.47286862636813        0.17190601098581
N            5.39286473117114       -1.41756295413480        0.80628959320648
C            6.70888114331334       -1.11718164280368        0.67832997223188
C            7.82301546202574       -1.86055015431136        1.15796104986303
C            7.64622726154631       -3.06419405212418        1.84818065030077
C            8.73384571688855       -3.78365555763801        2.27600100972685
C           10.01610744539671       -3.30616204403755        2.01259622994638
C           10.20105813405289       -2.12095446157633        1.33950208104440
C            9.11507143413189       -1.35188054256553        0.89422393456117
C            9.27542949905136       -0.07900525981234        0.21223855254710
C           10.54049345952329        0.48843299423045        0.00544839795576
C           10.70195814594685        1.71345234029223       -0.59742794965259
C            9.58966402592389        2.44056029676458       -1.00897675445598
C            8.33271298171574        1.91698225720219       -0.83365972899691
C            8.14738610196818        0.65613499709992       -0.24774699346695
C            6.86860829632881        0.06614904117309       -0.04464899122184
N            5.59361618087447        0.46505127400172       -0.37475165714851
C            5.18208459997491        1.60001971721519       -1.10012991429081
C            4.39989896601142        2.56584953314523       -0.47733679421986
C            3.95541944794552        3.65767489750253       -1.20066016854389
C            4.28988967308846        3.79122680105090       -2.53794482517938
C            5.07270869970337        2.82952052043889       -3.15658387689171
C            5.51770500214848        1.73110183792773       -2.44459342112696
C            2.61156053598063        0.05768364590415       -1.03853131926554
C            1.23579223835813        0.09090298724135       -1.05341253630446
C           -1.73884532439984       -1.50709297529822        0.26688474209376
C           -1.13881983173255       -2.76022057206851        0.40358168683535
C           -1.88487373674482       -3.89292537854516        0.72486008057259
C           -3.24445249693465       -3.78591168838713        0.91871936178798
C           -3.87670510878108       -2.56009351047597        0.72468626755667
C           -3.16021813300145       -1.42253686646650        0.34345979002077
C           -6.04380023367125       -0.97006718389016       -0.71737494324271
C           -7.86637151411699       -3.16230911438951       -1.65111330866258
C           -8.61931648445631       -4.02659452514187       -2.42371724719734
H          -10.32970775617871       -4.24197531806970       -3.69462294352918
H          -10.98264021163282       -1.87035194818865       -3.49888253238373
H           -9.64325356095558       -0.33054025100009       -2.13036389383455
H           -9.13434565574315        0.07987409395806        0.14739189546666
H           -9.50436868750230        0.53199209288366        2.44423181659740
H          -10.62615282905663        2.19208281040212        3.86676142214467
H           -9.73436916089898        4.48696460731579        4.03252706176524
H           -7.71496047478873        5.11161967129166        2.75917885451899
H           -6.60153977164356        3.45878590740121        1.32269515098025
H           -5.33288298403964        1.45181940952211        1.52718496235002
H           -4.73421566095097        2.20505329487557       -0.77877745023020
H           -3.42644503379090        4.24459368879848       -1.15521336818155
H           -0.96886116446383        4.20803976668850       -0.84318693905835
H            0.15996623600280        2.11362675754918       -0.27076706391321
H            0.61883641871284       -1.30233933086415        1.96372687911636
H            3.08440145021408       -1.35776766837765        1.98760313097266
H            6.63631966117861       -3.40179615179002        2.02178644339787
H            8.60272053915904       -4.71437235794126        2.80798963322785
H           10.87586734302793       -3.87257126012024        2.34065847496408
H           11.21230255412133       -1.79363372921343        1.15677597728006
H           11.42326461151820       -0.03661473592562        0.33273203216455
H           11.69340080898520        2.11784511203230       -0.73914460897436
H            9.71254918020816        3.41408383132750       -1.46018489658123
H            7.47313606023553        2.49323301832555       -1.13709556413495
H            4.14289254939110        2.45015356882879        0.56517803955226
H            3.34709077140786        4.40685182132473       -0.71677937118297
H            3.94046870677493        4.64421156330892       -3.09961878210363
H            5.33345163549924        2.93114472854500       -4.19935937251640
H            6.12409082230223        0.97227981811411       -2.91762102689942
H            3.15410400330999        0.39416630481178       -1.90887087516657
H            0.72054892901806        0.45555047652146       -1.93038186779333
H           -0.07540128418252       -2.86121087340164        0.25075995191738
H           -1.38685280916080       -4.84479185647098        0.83267985377924
H           -3.82852830676402       -4.64766601121515        1.20589590706530
H           -4.94275831113074       -2.48862596445950        0.87779976158949
H           -5.54779306655943       -1.66023036690936       -1.38435556856279
H           -6.99908249971304       -3.53118270293432       -1.12257276115726
H           -8.32984453361091       -5.06433077882118       -2.50541454149153
