99
 energy: -151.611821868140 gnorm: 0.000035893080 xtb: 6.7.1 (edcfbbe)
C           -9.61477384648008       -2.70598205200733       -3.92567420383046
C           -9.97285857731625       -1.42876597334248       -3.52797811035952
C           -9.24918935734587       -0.77747198382057       -2.54652794253752
C           -8.15088241066600       -1.39215639464407       -1.95049866730180
C           -7.38016427231383       -0.70423323058871       -0.90325728980916
C           -8.02820179126045        0.02427774004260        0.08854710335652
C           -7.30971760898599        0.67248672840153        1.08748130019644
C           -8.00545362741960        1.44618319478968        2.12733687763703
C           -9.17290942729882        0.96322574515649        2.71308025610180
C           -9.82504611008048        1.69457493198127        3.68825753176543
C           -9.32507378985648        2.92200987764647        4.08962635069573
C           -8.16587359034082        3.41245090085275        3.51222629889204
C           -7.50907174157657        2.68004988211264        2.54107509986943
C           -5.92128954153013        0.58356846114812        1.08671669680175
C           -5.25676196899877       -0.13891764208610        0.10345610704427
C           -3.78201415929427       -0.22694080468323        0.11141498065793
C           -3.01328508428870        0.92332589711230       -0.11767683422384
C           -3.61290756277743        2.18017052481656       -0.39539877080789
C           -2.85863769325289        3.29631438713885       -0.58628133642675
C           -1.45363842218533        3.22562984160037       -0.50725077439779
C           -0.83820407150263        2.03541093903151       -0.27077043678405
C           -1.58629825690911        0.84156574412016       -0.09158057721561
C           -0.96326166838101       -0.39647396836821        0.12545534612943
C            0.51074367647390       -0.47570334349880        0.13608700582741
C            1.19958510802331       -0.78195366075680        1.30723613051023
C            2.57891218428902       -0.80486764013903        1.32393403790692
C            3.30437920547037       -0.51544365754126        0.16913910836345
C            4.75729052994632       -0.50159211585128        0.24155220217117
N            5.46672877268409       -1.37020796047448        0.91395113789422
C            6.76616676682055       -1.01659710740113        0.72590408831022
C            7.92819622652571       -1.67352825492430        1.21728771858621
C            7.83119011536672       -2.83611008615960        1.98914583488546
C            8.96477893104024       -3.47410888561083        2.42620530706190
C           10.21410122088993       -2.95583154073861        2.09063028690549
C           10.32089183934028       -1.81026499353489        1.33729684420119
C            9.18584536011613       -1.12345305263067        0.87955336872945
C            9.26433614419446        0.10837742978149        0.11359787016972
C           10.49336065760211        0.72156697565360       -0.16840186153577
C           10.57575165240926        1.91200856842604       -0.85083505278852
C            9.41711494645969        2.55805309816444       -1.26985692313789
C            8.19344200812641        1.98692545462709       -1.02233326343098
C            8.08910257707330        0.75772204416950       -0.35552899025683
C            6.84745063320188        0.12044961724399       -0.07632676206976
N            5.54490457446221        0.43661523658893       -0.39150495003307
C            5.04380005989587        1.48315819791758       -1.18878189270864
C            4.17529754910103        2.41382802738927       -0.63007602179598
C            3.63442437197407        3.40916513538160       -1.42338553060351
C            3.95862563151071        3.48250682369508       -2.76770913350693
C            4.82740332653277        2.55657410261388       -3.32269007473074
C            5.36788049946604        1.55288471141840       -2.54044133229266
C            2.61679761258853       -0.25548580316699       -1.01484587154722
C            1.23704021385225       -0.23283610545547       -1.02646988596385
C           -1.73192364976882       -1.55037023209213        0.33393904636335
C           -1.13213120138121       -2.82448086018526        0.51577280741263
C           -1.88709139457975       -3.93318442977013        0.74429847312967
C           -3.29114282835805       -3.83525135995897        0.81302466439634
C           -3.90608461482084       -2.63724730441996        0.61801704419851
C           -3.15859796628239       -1.46081337125506        0.34687434143302
C           -5.99098571703172       -0.77870956974433       -0.88753730176876
C           -7.79691500485070       -2.67531143038414       -2.36073133849603
C           -8.52528915171515       -3.32704256083851       -3.33831246590125
H          -10.18239731268840       -3.21517844560398       -4.69052967492939
H          -10.81927719745059       -0.93765998545718       -3.98601543494443
H           -9.52366984323272        0.22514435554808       -2.25161481468748
H           -9.10645278512768        0.08749880700144        0.08304558773355
H           -9.55885917254968       -0.00108257973576        2.41530753833711
H          -10.72658645256019        1.30500376870590        4.13862564832041
H           -9.83662428599655        3.49389897597713        4.84971346131899
H           -7.77296626630022        4.37095357560307        3.81932431381772
H           -6.61283080333618        3.07456999579234        2.08405438850368
H           -5.34992173197109        1.05786504128572        1.87162123421469
H           -4.68959389483156        2.23487647569018       -0.45806494375109
H           -3.33014854496798        4.24520061791908       -0.79671554420594
H           -0.87038098088942        4.12504727921269       -0.64140943876244
H            0.23912934835101        1.98347142087518       -0.21439900953964
H            0.64251841428630       -0.98497781969895        2.21056980791086
H            3.11737473925002       -1.03397642877593        2.23046777074435
H            6.84461555899472       -3.20851537727593        2.21730136388952
H            8.89512748444460       -4.37293106135760        3.02101094391054
H           11.10974766680562       -3.45888261522674        2.42594040473378
H           11.30898694478699       -1.44868254277595        1.10040239157310
H           11.41031535163610        0.26143843933890        0.16263923122306
H           11.54124047653214        2.35369221067004       -1.04932297737106
H            9.47828794105102        3.50633223552914       -1.78322529339762
H            7.29718024552340        2.50140537713165       -1.33120746505673
H            3.92815508265945        2.34742499697925        0.41917448013663
H            2.95856550360141        4.13007463911986       -0.98860711860242
H            3.53414747060917        4.26021860171855       -3.38424748725824
H            5.08041848822860        2.61087829910922       -4.37091321538468
H            6.04009368911472        0.82110374949049       -2.96471795623819
H            3.15775337510872       -0.08442271005726       -1.93349078487506
H            0.70931224773800       -0.02813606073898       -1.94694925197281
H           -0.05618919383878       -2.90012787493678        0.46543638433113
H           -1.41613509027764       -4.89566743825423        0.88003037699964
H           -3.87412948557570       -4.72114425347902        1.01864709926551
H           -4.98211856066884       -2.56335973781469        0.67219666438808
H           -5.47073181773437       -1.31752931474139       -1.66632267719569
H           -6.95667422917022       -3.17094977274466       -1.89591415037559
H           -8.24320374828698       -4.32467537241195       -3.64249675826889
