99
 energy: -151.611531104354 gnorm: 0.000053252144 xtb: 6.7.1 (edcfbbe)
C           -9.36158700015023       -2.41666936892528       -4.15514077400553
C           -8.27014169821632       -1.62049257168565       -4.45928833657363
C           -7.55304387422060       -1.00769454481436       -3.44873073222143
C           -7.92061366071342       -1.17709370061337       -2.11606183399344
C           -7.16178077990786       -0.51921498752157       -1.04133806087433
C           -7.82205199362601        0.07231371512420        0.03044314612858
C           -7.11541167291630        0.70962537729824        1.04480346669551
C           -7.82598657747786        1.34097103602400        2.16757239031100
C           -8.91452438846599        0.70944143153916        2.76389344866709
C           -9.58075411223117        1.30292579287027        3.81979676273313
C           -9.17379674249526        2.53896544629971        4.29328842461288
C           -8.09382204026818        3.17669418845230        3.70622534201625
C           -7.42286486498699        2.58211522597490        2.65393945784242
C           -5.72597424966838        0.74507223813690        0.98073779647819
C           -5.05000285621846        0.15585293968120       -0.08009495426672
C           -3.57364515642579        0.20246215543480       -0.14153139533623
C           -2.94446644180504        0.99330206913378       -1.11317833090704
C           -3.68747783757993        1.77913725741216       -2.03336325053102
C           -3.06619084445616        2.52435502263039       -2.98731593175116
C           -1.66027585655639        2.52646815439554       -3.08410386212272
C           -0.91034246657868        1.80549016646707       -2.20701600967608
C           -1.51720271763928        1.03329239600169       -1.18155465425004
C           -0.75502771906731        0.30340801215134       -0.25847333980244
C            0.71950121190994        0.36305114431224       -0.30847178061927
C            1.39264590556467        1.53979186852333        0.01129728723098
C            2.77100823274589        1.58375546339156        0.00053058151663
C            3.51315133048529        0.44915403820082       -0.32737824504715
C            4.96388092587143        0.54165646798424       -0.29580893163962
N            5.62987720209740        1.60227991856198       -0.67473989310398
C            6.94362952294045        1.30116919567185       -0.50120310467101
C            8.07106998108175        2.11363613790844       -0.80473906570859
C            7.91647727408361        3.38927761806127       -1.35747900090506
C            9.01718105388815        4.14610880110217       -1.67169727962190
C           10.29083040016120        3.63048718996779       -1.43941209973732
C           10.45407930747764        2.37975034444654       -0.89141965766513
C            9.35400997677121        1.57905123024282       -0.54739126252904
C            9.49167200886080        0.26970643188031        0.06665374676839
C           10.74752536526591       -0.25554358873112        0.40265248145073
C           10.88694622770845       -1.47237348132217        1.02676253245868
C            9.76113426752840       -2.21732559233193        1.36271849755727
C            8.51278336008212       -1.74357874656803        1.04325939309694
C            8.35014768962001       -0.51963988131772        0.37838307559341
C            7.08096494574195        0.01515548515063        0.01896243640465
N            5.79688644421986       -0.46816416234546        0.13694046398618
C            5.35535796403070       -1.72231604320238        0.60038131496576
C            5.70011021371218       -2.88361685525098       -0.08489398824610
C            5.22290476247453       -4.10450621839618        0.35455341079944
C            4.39711021419575       -4.17181154103003        1.46530888061542
C            4.05169173278084       -3.01462448714749        2.14310409060687
C            4.52912732520501       -1.78878331433234        1.71631693201210
C            2.84072331909697       -0.71684491897251       -0.68880098714549
C            1.46097546504719       -0.75700500352149       -0.67271856710452
C           -1.38443811876890       -0.48014021562045        0.71969624816914
C           -0.64306045917840       -1.20948381128262        1.68664452257410
C           -1.26594144564627       -1.98082259717121        2.61857871160556
C           -2.67181103946673       -2.07435537914727        2.64091594721173
C           -3.41998852134990       -1.37418723098472        1.74589494102803
C           -2.81182931239016       -0.54098779990510        0.77026283391655
C           -5.77205205049851       -0.47180308940892       -1.08722957051962
C           -9.02084755189644       -1.97843930011445       -1.82164430610741
C           -9.73323791811550       -2.59509441082375       -2.83315103013977
H           -9.92026941392223       -2.89645655314084       -4.94517367766943
H           -7.97765980472122       -1.47527732686699       -5.48921158971181
H           -6.71125596528306       -0.37585963755191       -3.69332754663297
H           -8.90200715058169        0.07337317212396        0.05391688344191
H           -9.22673504563852       -0.26219644559728        2.40888434565215
H          -10.42021467291690        0.79899065361206        4.27674109631196
H           -9.69627127666547        3.00335198775727        5.11660349980490
H           -7.77432160461079        4.14288936950625        4.06922271352228
H           -6.59080487786666        3.09124619820197        2.18930370475215
H           -5.16100175916239        1.22366688916504        1.76767727516428
H           -4.76502339811389        1.77745392766230       -1.95989899819321
H           -3.64527713914513        3.11736373271472       -3.68011762651658
H           -1.18391625290868        3.10884464134604       -3.85905441748692
H            0.16685554616938        1.80794299602651       -2.28205758133738
H            0.82342606601150        2.41724370932238        0.28256639556043
H            3.29804082312883        2.49090948076260        0.25217184319395
H            6.91271509651698        3.74548605577613       -1.52966545284069
H            8.90318438060672        5.13120375579003       -2.09962678704877
H           11.16079472253317        4.21958694252181       -1.69199364958274
H           11.45921640465161        2.02254680849118       -0.73241718287430
H           11.64033465786474        0.30557786933380        0.17875576351690
H           11.87167724314619       -1.84400462121455        1.26933191476974
H            9.86688045042855       -3.16168218858757        1.87607009455399
H            7.64251126770886       -2.31565112851493        1.32357933674807
H            6.33931148855599       -2.81849177934407       -0.95353458161196
H            5.49207581167025       -5.00523828466411       -0.17645096521780
H            4.02257700132460       -5.12682846652806        1.80118723685373
H            3.40893538841791       -3.06521429751595        3.00900504986057
H            4.26480853809437       -0.88020290105207        2.23689713136818
H            3.39153312942656       -1.59133219698898       -1.00083573665326
H            0.94555545560603       -1.66470201527463       -0.95233337155938
H            0.43468567246805       -1.13989337391763        1.67078494057514
H           -0.68799272207382       -2.53004394157070        3.34761232082763
H           -3.14898442813565       -2.70391226228077        3.37763578296686
H           -4.49742980150909       -1.44457273577480        1.76394203925983
H           -5.24204837952278       -0.94650646455706       -1.90040079993376
H           -9.30585368721208       -2.13406413540791       -0.79109747470078
H          -10.58126542598839       -3.21885955173306       -2.58983625738401
