78
 energy: -120.430125214092 gnorm: 0.000175759765 xtb: 6.7.1 (edcfbbe)
C            1.69303628256709        4.08392772253233        1.33311955473460
C            0.62996059459649        3.03759449500353        0.99404269345664
C           -0.05041432200530        2.59912976069276        2.30991491575755
C           -0.44443442896931        3.57617972216815        0.06734693440301
C           -0.66325853954907        4.92539103409342       -0.16631025974101
C           -1.70131364298414        5.35071570008318       -0.97865478072130
C           -2.53674370602380        4.42566328179915       -1.58028861673828
C           -2.33033985786281        3.07494523373067       -1.37332656114146
C           -1.29708312696225        2.65044567281265       -0.54635493547621
N           -1.02684833781877        1.28338993535466       -0.37055478477764
C           -2.00398815189962        0.32622937953380       -0.19016448650646
N           -3.26390024090549        0.65321181392685       -0.36486645753169
C           -4.18861518932031       -0.31786059852308       -0.05247338577880
C           -5.58110775329583        0.01674107149059       -0.11301060235429
C           -6.56610231659651       -0.95266910532657        0.14233148651344
C           -7.90168183453848       -0.62582966670256        0.08164395250471
C           -8.29741773403221        0.66969210739273       -0.23213351893975
C           -7.33360072498232        1.63866355999288       -0.48177331148653
C           -5.99424019840341        1.32331463898720       -0.42490499919183
N           -3.81598219519367       -1.54578056628730        0.28090857818865
C           -2.52765509666364       -1.83261456484854        0.37384390027855
C           -2.10148953116282       -3.17076223533092        0.66682946214238
C           -0.73544575463048       -3.47548331518915        0.79197245276316
C           -0.32855766976199       -4.76457965184626        1.05613975986815
C           -1.26329392819844       -5.78129045329729        1.20576486548784
C           -2.61835063823128       -5.49117014230845        1.08921783354961
C           -3.03676429038462       -4.20737807804334        0.82146728728819
N           -1.57338420682573       -0.85776140759477        0.21751733181236
C            0.31688961716253        0.91957579278910       -0.30149753087504
C            0.75102155537092       -0.27167754312314       -0.88453543679345
C            2.08666437510374       -0.60875655759614       -0.78677505934134
C            2.86132436457920       -1.74242406259940       -1.21701604249209
C            2.54714722138880       -2.91822103511083       -1.88213312715924
C            3.56571675635045       -3.81542133158483       -2.15100886469504
C            4.88018861211802       -3.54288022488011       -1.77965240222628
C            5.21619569594557       -2.37777508503397       -1.11375662533904
C            4.19444154496326       -1.48606197589497       -0.81833367676669
N            4.25217440236911       -0.25966559579729       -0.18166438829955
C            5.41225320175031        0.33969444891306        0.34010571525439
C            5.74256832267890        1.64468113116413       -0.01468229611439
C            6.88172219350962        2.23105777845639        0.50656330504465
C            7.69791108085619        1.52260293527260        1.37374457757552
C            7.36983945288082        0.22274321362725        1.72459635824274
C            6.22970900248692       -0.37115286287864        1.21421227613512
C            2.99143640822025        0.27734069750116       -0.15302665305643
C            2.55571376540144        1.47382845908992        0.41027309372454
C            1.21666781814957        1.80193296873393        0.33687274211124
H            2.41604577076413        3.67239805575564        2.03148933920752
H            1.23113927334297        4.93807425778082        1.81953563723553
H            2.20854761116353        4.41874122628148        0.43641670742923
H           -0.81528446995884        1.84643558885109        2.13014853598091
H            0.68872792232047        2.17893580513049        2.98834500309672
H           -0.52043275118438        3.45627169957651        2.78693293166973
H           -0.02576480823383        5.66550082225522        0.28758699814786
H           -1.85594869250286        6.40659083635804       -1.14092056721573
H           -3.34253093820145        4.75037836020081       -2.22111663791912
H           -2.96128253077866        2.34120364205180       -1.84720514863275
H           -6.24991412132349       -1.95626201015589        0.38565935292741
H           -8.64860974116876       -1.38235683822687        0.27867189799498
H           -9.34670541552578        0.92076660719388       -0.27868607415418
H           -7.63696344749039        2.64842666441573       -0.72152997402878
H           -5.23924687283321        2.07269664587768       -0.60960773536835
H           -0.01618182429944       -2.67815026221106        0.67825784728564
H            0.72584678020318       -4.98579291981067        1.14721276104550
H           -0.94094594734024       -6.79091727418195        1.41286903782433
H           -3.34839015327030       -6.27993273297143        1.20684949155938
H           -4.08641369208460       -3.97248431247045        0.72431293578030
H            0.05771895023944       -0.90622763486019       -1.41078543134340
H            1.53012618696159       -3.12491590876315       -2.17901616917392
H            3.34134037853723       -4.73777945433004       -2.66528654828263
H            5.65457997886814       -4.25622123571532       -2.01815294164424
H            6.23917971171782       -2.16915822735015       -0.84210553690340
H            5.11654423982173        2.18317131424267       -0.71013618405516
H            7.13636065458382        3.24236102258152        0.22748366172453
H            8.58807293211900        1.98212290219789        1.77552456626084
H            8.00018145198072       -0.33048532007700        2.40441206304837
H            5.95711462807374       -1.37524010124805        1.50229441065218
H            3.25927930627601        2.11130073278819        0.91734831014488
