78
 energy: -120.430150066254 gnorm: 0.000068776014 xtb: 6.7.1 (edcfbbe)
C            1.61943613944938        4.12474410940127        1.26368143123004
C            0.57786275956353        3.04909972705063        0.95035135013487
C           -0.06426656431952        2.59825187831149        2.28120832139387
C           -0.52863380745080        3.55586483647081        0.04360654355424
C           -0.78861871137288        4.89809917029185       -0.18810952715869
C           -1.85359384980647        5.29313431589867       -0.98064154782217
C           -2.67538407657349        4.34449977997808       -1.56406585858189
C           -2.42874425419582        3.00036217728008       -1.35836639202602
C           -1.36803401362157        2.60618656173500       -0.55141672496789
N           -1.05797149087818        1.24740222498326       -0.37811997232285
C           -2.00495420829021        0.26615247316323       -0.16913276637584
N           -3.27673448047804        0.55775101903407       -0.31821474609542
C           -4.16750975252432       -0.43313217043594        0.02905406556258
C           -5.56917910793783       -0.13407183190896        0.00233217243377
C           -6.52261028127411       -1.12406584588485        0.29559842554715
C           -7.86700832775180       -0.83068023788955        0.26754930830781
C           -8.30299529805221        0.45085717833535       -0.05019665707342
C           -7.37051975249967        1.43998872720366       -0.33713536467208
C           -6.02276765962776        1.15813656857034       -0.31308147235874
N           -3.75488827072166       -1.64660134849643        0.36794507248900
C           -2.45745523681713       -1.89910770681463        0.43124939100733
C           -1.98864285718078       -3.22068383793440        0.73384920498917
C           -0.61214024239531       -3.48715560005772        0.82761141983427
C           -0.16404256128717       -4.75970710690759        1.10476947523280
C           -1.06697395887335       -5.79728888383324        1.29960771937982
C           -2.43181910436642       -5.54521342249554        1.21336770355702
C           -2.89136976926338       -4.27831268609418        0.93284548336845
N           -1.53344067825118       -0.90210000518537        0.23837619217687
C            0.29587817944471        0.91915863576342       -0.33287689678907
C            0.74936275726587       -0.26258761846564       -0.92053856388954
C            2.09450453579981       -0.56596994238087       -0.84516648756496
C            2.89028726366247       -1.68034322010797       -1.28720343765964
C            2.59552962764522       -2.86368512106801       -1.94785739045750
C            3.63236582204627       -3.73397027033329       -2.23478867783641
C            4.94540490047845       -3.42785625187673       -1.88510293610342
C            5.26228223151911       -2.25491170259036       -1.22364392644762
C            4.22291093359369       -1.38992051465448       -0.91086223626200
N            4.26020718309216       -0.16176560442637       -0.27621320986768
C            5.41285835619140        0.46559732160015        0.22892724256092
C            5.70725362043901        1.77760647752390       -0.13132255066150
C            6.83865406196410        2.39167948454279        0.37472333360621
C            7.68251170968091        1.70395118074964        1.23202700056521
C            7.39035849471729        0.39694100678837        1.58798274364817
C            6.25834591921042       -0.22467042871530        1.09279480659022
C            2.98720060944316        0.34383029440083       -0.22798996120524
C            2.53161166926887        1.53099949377799        0.33923298441759
C            1.18394017836543        1.82617086115504        0.28684872207515
H            2.36899146524178        3.73516615054308        1.94645888564841
H            1.14532915763478        4.96716614090996        1.75870706372861
H            2.10530476072747        4.47105637618842        0.35484507224807
H           -0.81051095309927        1.82302856378057        2.11967266709912
H            0.69946385025982        2.20265072525418        2.94708663967595
H           -0.54940040887432        3.44401224056741        2.76336459327735
H           -0.16303893610669        5.65647970912898        0.25198621736910
H           -2.03987265885978        6.34404943597426       -1.14178607870471
H           -3.50164557264848        4.64607541956108       -2.18993216777434
H           -3.04890500344443        2.24850699551264       -1.81790220101005
H           -6.17529320811599       -2.11654225513799        0.54197448022370
H           -8.58928673357445       -1.60281584916434        0.49381872365469
H           -9.35902858022351        0.67571671669208       -0.07092938274782
H           -7.70513632924601        2.43902087503149       -0.58015071039089
H           -5.29175325456661        1.92345303256920       -0.52661026484472
H            0.08231635878433       -2.67355533446241        0.67977712059093
H            0.89794670635387       -4.95132633075205        1.17147676180604
H           -0.71233203560051       -6.79369202912570        1.51766602158354
H           -3.13722466283675       -6.35042311897343        1.36505325771740
H           -3.94915703174727       -4.07312816927783        0.85965054934771
H            0.06268817488986       -0.91572482395704       -1.43261605491245
H            1.57955154773267       -3.09622689811576       -2.22867129744718
H            3.42351426971065       -4.66132067864255       -2.74660924754548
H            5.73395545243943       -4.12056900869737       -2.13756458375219
H            6.28383019392144       -2.01998935742731       -0.96857599046361
H            5.05965179724209        2.30012172471679       -0.81915766606352
H            7.06527069640581        3.40851898093723        0.09162924286474
H            8.56631494802446        2.18515268394673        1.62228130458926
H            8.04235833348015       -0.14026577964584        2.26016249600171
H            6.01367241162354       -1.23475491665578        1.38500308464622
H            3.22775533983382        2.18724172068388        0.83241488748911
