78
 energy: -120.514726040998 gnorm: 0.000067799502 xtb: 6.7.1 (edcfbbe)
C            2.26702307328097        3.57971194180432        0.97200518138649
C            1.04558725243766        2.71096065379612        0.66803905321815
C            0.25590081066455        2.52290135229670        1.98157415834643
C            0.12081020562083        3.34626137185101       -0.35528952971325
C            0.17715557031010        4.67820244367570       -0.73872434392082
C           -0.73091934145822        5.19759000200086       -1.64619531705239
C           -1.70599834073340        4.38561613773666       -2.19767921038433
C           -1.76786617681792        3.05016761358849       -1.84493647034574
C           -0.86960245402712        2.53762751302705       -0.91933393561289
N           -0.87735862674374        1.16861830842057       -0.58136498754259
C           -2.01508403315512        0.49939885812896       -0.29123029429886
N           -3.16333915895667        1.18548753528061       -0.29408727982696
C           -4.24426937557049        0.49376497149336        0.02999886265167
C           -5.52236885320692        1.21209398796754        0.05876156069654
C           -6.70626175391926        0.53198151344302        0.33615911960371
C           -7.90808613034011        1.21381313606051        0.36307014745220
C           -7.93942980530508        2.57753855799721        0.11498723021468
C           -6.76425600857805        3.25989648790871       -0.16103491709336
C           -5.55974457984880        2.58324329810092       -0.18931259880774
N           -4.25261817132464       -0.80603463837464        0.32777996771539
C           -3.06031291973640       -1.40174922394413        0.31430519293555
C           -2.99986000974182       -2.83474952478839        0.61983654289979
C           -1.76797268153583       -3.48526593488678        0.67036709871814
C           -1.70945127185911       -4.84101978554934        0.93065840438194
C           -2.87648842325828       -5.55802631278623        1.14725698953807
C           -4.10424028161177       -4.91506675300463        1.10465652999533
C           -4.16861447224901       -3.55959071447250        0.84209974513865
N           -1.91959075483950       -0.79450545262152        0.02936593312132
C            0.40222722295454        0.57502724384129       -0.46401670915368
C            0.64323266817073       -0.68226994316693       -0.98801488680620
C            1.91312187765350       -1.22314947190944       -0.85734090402993
C            2.50534201934736       -2.46880451844340       -1.25400639497919
C            2.01107980337064       -3.60752937074467       -1.87808716132008
C            2.86806129002905       -4.66857820243246       -2.09176339070240
C            4.19892421509679       -4.60860512748148       -1.68103616269157
C            4.71283882275101       -3.48805939847404       -1.05685445229907
C            3.86193582565678       -2.40968869077088       -0.85616279312049
N            4.10642834074732       -1.19739815894185       -0.24195978506703
C            5.33603759910783       -0.78016004087534        0.29627554908391
C            6.49167440763464       -0.83561979179490       -0.47686706138795
C            7.70059095175028       -0.43033448366620        0.05953524527369
C            7.76465716321398        0.04272867620957        1.36005331533318
C            6.61367015771529        0.10377204239465        2.12860762203921
C            5.40238650677489       -0.31036292503723        1.60469501290665
C            2.93344335364558       -0.47253851697647       -0.23229601951593
C            2.69758778317533        0.81253934601792        0.23508455195171
C            1.42144666796062        1.33869840308602        0.13406486953291
H            2.88302644214529        3.10749489916099        1.73240213855622
H            1.95040003928987        4.54122963368559        1.36671554683237
H            2.86370386046782        3.73923726207487        0.07707098846628
H           -0.62854433852643        1.90760670430023        1.83085477652092
H            0.88434719740725        2.03938031801933        2.72654903616986
H           -0.06353088322610        3.49013312151199        2.36403875978069
H            0.93048498005240        5.33065447653816       -0.32928712069192
H           -0.67298709789062        6.23920414177761       -1.92418169832634
H           -2.41123366031479        4.78456532377817       -2.91135204192123
H           -2.51175433323009        2.40116516368056       -2.27949737777608
H           -6.66214776854927       -0.52919656441708        0.52702115188711
H           -8.82319670887563        0.68209655828322        0.57869587628601
H           -8.87965857847635        3.10848797754939        0.13709882254259
H           -6.78816506115802        4.32254107393874       -0.35307605684066
H           -4.63386513884469        3.09706731823868       -0.39903829727298
H           -0.87046268873275       -2.90978537413566        0.50267329521028
H           -0.75182922774057       -5.33976281493450        0.96373670812522
H           -2.82953908960743       -6.61796940639033        1.34929084879504
H           -5.01311802869173       -5.47327833470290        1.27494686620273
H           -5.11522886040446       -3.04308755583469        0.80121151373361
H           -0.14394364336741       -1.22868004065490       -1.48034329414307
H            0.97579576379240       -3.65775633517781       -2.18168365091706
H            2.50427720803362       -5.56264997356002       -2.57634176484264
H            4.84178790411198       -5.45988280279574       -1.85080956108312
H            5.74055461416372       -3.45859316982923       -0.72835991891613
H            6.43320256674718       -1.18602330740024       -1.49656388263125
H            8.59473699996890       -0.47680994969635       -0.54436002460631
H            8.70923416027807        0.36197968416782        1.77391726995951
H            6.65956829820410        0.46771319000470        3.14446464845773
H            4.50647653115777       -0.28654197065038        2.20717543374567
H            3.50417757754324        1.38092833846455        0.66538972994229
