  52
        -89.85608090
 N         -5.7905391122       -2.0521291393       -0.5986612068
 C         -4.8173741296       -1.4523736760       -0.4208247128
 C         -3.6346290084       -0.7615258932       -0.1959104714
 C         -2.4059974401       -1.3927927093       -0.3566838446
 C         -1.2077044661       -0.7244700177       -0.1874599884
 N         -0.0102721010       -1.3705246074       -0.4350853304
 C          0.3110642095       -2.6635870484       -0.0518196649
 C         -0.3872960224       -3.5392544188        0.7671815327
 C          0.1902976498       -4.7657513220        1.0466834877
 C          1.4377171167       -5.1147664853        0.5352954269
 C          2.1586957814       -4.2319180985       -0.2498474502
 C          1.5967556953       -2.9983693728       -0.5450108004
 C          2.0723342757       -1.8488794224       -1.2581498651
 C          3.2203298051       -1.5152231462       -1.9629437501
 C          3.2833303647       -0.2510328482       -2.5255962644
 C          2.2095816439        0.6268898135       -2.3770718607
 N          1.1150288653        0.3360377344       -1.6965412345
 C          1.0530239955       -0.8653516194       -1.1537761647
 C         -1.2282199106        0.6859995467        0.1803897793
 N         -0.0501767371        1.3670829461        0.4273709916
 C          0.2286827222        2.6724231225        0.0524303135
 C         -0.4974995175        3.5300488071       -0.7615808825
 C          0.0382225992        4.7777343356       -1.0302339075
 C          1.2722253825        5.1651261169       -0.5137841909
 C          2.0219261600        4.3010420585        0.2652063297
 C          1.5017313888        3.0469143752        0.5500103454
 C          2.0145593577        1.9094379877        1.2562982236
 C          3.1717407511        1.6102564506        1.9615762073
 C          3.2762351702        0.3456768805        2.5170018566
 C          2.2325871091       -0.5666663428        2.3617287378
 N          1.1299470797       -0.3081370525        1.6812584066
 C          1.0285242141        0.8932499621        1.1447122999
 C         -2.4456895762        1.3179982690        0.3527556854
 C         -3.6552720993        0.6504127013        0.1943817527
 C         -4.8577359736        1.3057060551        0.4223088658
 N         -5.8478427493        1.8763288552        0.6035815970
 H         -2.3989723760       -2.4234257341       -0.6797156401
 H         -1.3408661378       -3.2710938753        1.1938579837
 H         -0.3372038220       -5.4631184011        1.6792227091
 H          1.8515059838       -6.0844679722        0.7668450020
 H          3.1384694494       -4.4904996625       -0.6213113574
 H          4.0325974448       -2.2188154478       -2.0700219025
 H          4.1568421277        0.0661948091       -3.0721407682
 H          2.2301341289        1.6188441239       -2.8055532749
 H         -1.4405428365        3.2328682056       -1.1924463970
 H         -0.5121677112        5.4620097081       -1.6575222791
 H          1.6524622320        6.1505788456       -0.7359642846
 H          2.9916998665        4.5899072666        0.6406310382
 H          3.9595010497        2.3402523141        2.0747987625
 H          4.1588709423        0.0547479432        3.0635798997
 H          2.2853059852       -1.5600103831        2.7842194691
 H         -2.4690121344        2.3479990877        0.6769665261
  52
        -89.85304921
 N         -5.6260110231       -1.3838810931       -2.2775623736
 C         -4.6827947910       -0.9310478925       -1.7857162560
 C         -3.5442452598       -0.3978263115       -1.1941205178
 C         -2.3508706791       -1.1072378784       -1.1762442456
 C         -1.2277061712       -0.6245697378       -0.5297065705
 N         -0.0980593064       -1.4151302935       -0.4261110569
 C          0.7798661623       -1.4792165756        0.6441855381
 C          0.6002827136       -1.0656619312        1.9573662025
 C          1.6459278860       -1.2456551504        2.8435113692
 C          2.8370347694       -1.8506354416        2.4451074928
 C          2.9968668023       -2.3331436442        1.1589432180
 C          1.9611735177       -2.1583949592        0.2521832518
 C          1.7597798909       -2.5661554503       -1.1079173715
 C          2.4974854535       -3.2462306039       -2.0660068049
 C          1.9162146844       -3.4401388139       -3.3087936608
 C          0.6323276261       -2.9535324261       -3.5550984842
 N         -0.0888574426       -2.3146872732       -2.6518391296
 C          0.4616753890       -2.1160468863       -1.4749968577
 C         -1.2518095405        0.7191472444        0.0388502353
 N         -0.0857872388        1.3059528869        0.5053534734
 C          0.0491117602        2.0417356970        1.6731292600
 C         -0.8893014857        2.3091093881        2.6600258241
 C         -0.4769475782        3.0244956515        3.7702860275
 C          0.8394955238        3.4589411710        3.9061379868
 C          1.7892230639        3.1669466538        2.9440917058
 C          1.3973380366        2.4529315188        1.8206614223
 C          2.1054767147        1.9459302472        0.6827138583
 C          3.4132568979        1.9880890043        0.2212079941
 C          3.6893197606        1.3556163323       -0.9795107005
 C          2.6637330684        0.7207188686       -1.6791808729
 N          1.4159824228        0.6518091701       -1.2502934991
 C          1.1530855716        1.2414004173       -0.0996877790
 C         -2.4334872369        1.4327192074        0.0205396217
 C         -3.5914967306        0.9231447519       -0.5609321761
 C         -4.7509021587        1.6853129455       -0.5926532962
 N         -5.7109058519        2.3311754101       -0.5770768711
 H         -2.3116664925       -2.0800348454       -1.6407060578
 H         -0.3300051028       -0.6283995485        2.2863933113
 H          1.5317734038       -0.9168413425        3.8650025026
 H          3.6373294166       -1.9605663070        3.1606584152
 H          3.9042509059       -2.8366681733        0.8631777987
 H          3.4925193836       -3.6062897365       -1.8499363827
 H          2.4406634034       -3.9741846536       -4.0849970958
 H          0.1514452348       -3.0992311261       -4.5114416741
 H         -1.9079144612        1.9623284932        2.5793576301
 H         -1.1920574925        3.2467231370        4.5472938417
 H          1.1210501324        4.0231762476        4.7820594846
 H          2.8150159366        3.4806244200        3.0617019057
 H          4.1843265382        2.5009662757        0.7766668601
 H          4.6899828376        1.3482054897       -1.3809117274
 H          2.8496172106        0.2300184741       -2.6240859916
 H         -2.4533123883        2.4421585176        0.4037873393
