  52
        -89.85608090
 N         -5.7905391122       -2.0521291393       -0.5986612068
 C         -4.8173741296       -1.4523736760       -0.4208247128
 C         -3.6346290084       -0.7615258932       -0.1959104714
 C         -2.4059974401       -1.3927927093       -0.3566838446
 C         -1.2077044661       -0.7244700177       -0.1874599884
 N         -0.0102721010       -1.3705246074       -0.4350853304
 C          0.3110642095       -2.6635870484       -0.0518196649
 C         -0.3872960224       -3.5392544188        0.7671815327
 C          0.1902976498       -4.7657513220        1.0466834877
 C          1.4377171167       -5.1147664853        0.5352954269
 C          2.1586957814       -4.2319180985       -0.2498474502
 C          1.5967556953       -2.9983693728       -0.5450108004
 C          2.0723342757       -1.8488794224       -1.2581498651
 C          3.2203298051       -1.5152231462       -1.9629437501
 C          3.2833303647       -0.2510328482       -2.5255962644
 C          2.2095816439        0.6268898135       -2.3770718607
 N          1.1150288653        0.3360377344       -1.6965412345
 C          1.0530239955       -0.8653516194       -1.1537761647
 C         -1.2282199106        0.6859995467        0.1803897793
 N         -0.0501767371        1.3670829461        0.4273709916
 C          0.2286827222        2.6724231225        0.0524303135
 C         -0.4974995175        3.5300488071       -0.7615808825
 C          0.0382225992        4.7777343356       -1.0302339075
 C          1.2722253825        5.1651261169       -0.5137841909
 C          2.0219261600        4.3010420585        0.2652063297
 C          1.5017313888        3.0469143752        0.5500103454
 C          2.0145593577        1.9094379877        1.2562982236
 C          3.1717407511        1.6102564506        1.9615762073
 C          3.2762351702        0.3456768805        2.5170018566
 C          2.2325871091       -0.5666663428        2.3617287378
 N          1.1299470797       -0.3081370525        1.6812584066
 C          1.0285242141        0.8932499621        1.1447122999
 C         -2.4456895762        1.3179982690        0.3527556854
 C         -3.6552720993        0.6504127013        0.1943817527
 C         -4.8577359736        1.3057060551        0.4223088658
 N         -5.8478427493        1.8763288552        0.6035815970
 H         -2.3989723760       -2.4234257341       -0.6797156401
 H         -1.3408661378       -3.2710938753        1.1938579837
 H         -0.3372038220       -5.4631184011        1.6792227091
 H          1.8515059838       -6.0844679722        0.7668450020
 H          3.1384694494       -4.4904996625       -0.6213113574
 H          4.0325974448       -2.2188154478       -2.0700219025
 H          4.1568421277        0.0661948091       -3.0721407682
 H          2.2301341289        1.6188441239       -2.8055532749
 H         -1.4405428365        3.2328682056       -1.1924463970
 H         -0.5121677112        5.4620097081       -1.6575222791
 H          1.6524622320        6.1505788456       -0.7359642846
 H          2.9916998665        4.5899072666        0.6406310382
 H          3.9595010497        2.3402523141        2.0747987625
 H          4.1588709423        0.0547479432        3.0635798997
 H          2.2853059852       -1.5600103831        2.7842194691
 H         -2.4690121344        2.3479990877        0.6769665261
