91
 energy: -136.854376870590 gnorm: 0.000032554918 xtb: 6.7.1 (edcfbbe)
C            0.40475351611495        5.52120384446084        1.12841656007742
C           -0.22996824621331        4.79638270150713       -0.06293045272986
C            0.24292153946993        5.42189163941557       -1.37999307060192
C           -1.73562127631328        4.81676641374071        0.03526468450546
C           -2.57176330418808        5.90229769478094        0.07861386664266
C           -3.94606414767555        5.69881518430589        0.19725985512728
C           -4.45550131661377        4.40866191449181        0.28294870878646
C           -3.62541347436603        3.30842134652322        0.23505493330899
C           -2.24434402476858        3.49550619011533        0.09570241584803
C           -1.16478172856960        2.57296059574650        0.02588375174645
C            0.07363214170613        3.31176812603263       -0.03089222113250
C            1.34090981624891        2.78270548136337       -0.04421794786426
C            1.45385456531856        1.36710731933944        0.00500343863568
C            2.42366444258408        0.31230477458152        0.02264510364524
C            3.81084858365341        0.29723795299499        0.01525437802203
C            4.48184463526721       -0.92603310645162        0.03901804810979
N            5.88053425902581       -0.94697987788284        0.02768912925785
C            6.58466659625213       -0.01298870808148       -0.73543791401754
C            6.08657019566520        0.41091167870639       -1.96872089829790
C            6.78250044624595        1.33892726583275       -2.71755024010373
C            7.98385700925309        1.85440582791137       -2.25750057987560
C            8.48416467035636        1.43548622234174       -1.03508384842899
C            7.79319634406460        0.51262616699365       -0.27498378058054
C            6.57062534000225       -1.90206297861057        0.77799659559262
C            7.74481982533946       -2.47631085138966        0.28883648279501
C            8.42175560386523       -3.41865122522230        1.03761521491732
C            7.94045166269483       -3.80835357738481        2.27730829759982
C            6.77287794827513       -3.24412624796647        2.76590407804720
C            6.09119259918638       -2.29683104892685        2.02817312776157
C            3.77022141702060       -2.13646098498465        0.07417115779455
C            2.38364964193575       -2.14791629262745        0.08436974398785
C            1.70989777452138       -0.94630241837626        0.06035974885451
N            0.35891123909079       -0.66123086996723        0.06407144691923
C           -0.90404914697484       -1.18048847557883        0.07334559513657
C           -1.34381380234622       -2.49331878354168        0.10951897599731
C           -2.69826685794607       -2.74545487126555        0.08270401742803
C           -3.62757146366480       -1.67938666369479       -0.00318052592058
N           -4.99217930749774       -1.96199434693176       -0.04196252786077
C           -5.46011720604367       -3.10909436612519       -0.68687052151673
C           -6.55014625241328       -3.81265939184678       -0.17178689500201
C           -7.00948340422082       -4.94664027770414       -0.81146104999240
C           -6.39123773188346       -5.40034835812840       -1.96622645767051
C           -5.30869003351960       -4.70558376874124       -2.48153584115513
C           -4.84479266303459       -3.56661399612034       -1.85370214102908
C           -5.90673254719384       -1.06972499224021        0.53032523122544
C           -5.60612596510227       -0.42021965152102        1.72858402439519
C           -6.50182537139182        0.47626226971927        2.27628458014747
C           -7.71071518518166        0.73238927401604        1.64832968275037
C           -8.01880949980023        0.08191073876653        0.46456018611317
C           -7.12637764479677       -0.81104702979634       -0.09602833699422
C           -3.19756953187896       -0.35933257589569       -0.03577204226926
C           -1.84231298212229       -0.06305199145176        0.03116471265081
C           -1.08133812787075        1.14828797300217        0.02561960478198
C            0.23373206999778        0.70413705964307        0.03295804795504
H            0.11965105902526        6.57086169009895        1.12706349536461
H            1.48927987164642        5.45552123448546        1.08156996473472
H            0.06948298548749        5.07155454224954        2.06068452560069
H           -0.03870670374574        6.47172227969351       -1.42169599127979
H           -0.21258469941424        4.90631140813003       -2.22285981557306
H            1.32423933158879        5.34644288899395       -1.47006919956478
H           -2.17924544092794        6.90833810221769        0.02667231254068
H           -4.61473637738761        6.54622947846097        0.23218830945408
H           -5.52196242487703        4.26483340832143        0.39138380105486
H           -4.04110723002454        2.31827370347788        0.32383254890350
H            2.21476840377189        3.41391946298918       -0.08562237125790
H            4.36791487378622        1.22205534019874        0.00843319732547
H            5.15648151892786        0.00108526165471       -2.33362622111140
H            6.38772170589009        1.65617507714672       -3.67133877445340
H            8.52601217875895        2.57783843833161       -2.84708214062402
H            9.41600694826733        1.83752404128714       -0.66565851893724
H            8.17781504033871        0.19898586339879        0.68442938696128
H            8.11406759279733       -2.18401473000129       -0.68331131349738
H            9.32731526267406       -3.85839884327751        0.64647133026945
H            8.47152864642793       -4.54684504796934        2.85826401339015
H            6.39422021632935       -3.53814575896812        3.73365656342739
H            5.18767888700071       -1.84863475506382        2.41396848225993
H            4.31560347574523       -3.06724055583835        0.07679596234996
H            1.85125119870303       -3.08673513758634        0.09760420951086
H           -0.63927717458320       -3.30890667140932        0.16988732738838
H           -3.06389805555117       -3.75823667429019        0.14430764164949
H           -7.02405255849815       -3.46698770314204        0.73528363578161
H           -7.85095435823257       -5.48515494550703       -0.40141921873481
H           -6.75207923828810       -6.28867989309267       -2.46168337529527
H           -4.82714164781956       -5.04818174414042       -3.38542052450323
H           -4.01170530459396       -3.01560667762882       -2.26403821793674
H           -4.66796629693778       -0.62565855321028        2.22239097831804
H           -6.25589077475028        0.97543152570917        3.20152185448975
H           -8.40747457396876        1.43522029599526        2.07882384912620
H           -8.95652826303975        0.27940877473031       -0.03333919478998
H           -7.36018828239520       -1.30374739492544       -1.02844458485846
H           -3.92511556798390        0.42847648666520       -0.14093230617230
