91
 energy: -136.932602085424 gnorm: 0.000059130467 xtb: 6.7.1 (edcfbbe)
C            0.37773861918540        5.34225416539743        1.16368879721338
C           -0.24365103384345        4.62493416582257       -0.03919452069505
C            0.23768652958556        5.26167067788092       -1.34774478922945
C           -1.74879373336424        4.64014520885503        0.04662067000934
C           -2.59035611670231        5.73011168135283        0.09504540384776
C           -3.95753403806855        5.51943575711351        0.20796047131526
C           -4.46547606019374        4.23240271780566        0.28393277860307
C           -3.62517085235838        3.13327254419246        0.23036618376593
C           -2.25949005929974        3.33402334385958        0.09614033762600
C           -1.15105060624100        2.39681821318852        0.02772868286931
C            0.05881238589654        3.14041308891688       -0.01629183605846
C            1.34064482601008        2.60653822481672       -0.03123291744595
C            1.45474587039125        1.21870600706433        0.00326686501488
C            2.43509464973453        0.15095647831206        0.02542340011657
C            3.81757997533283        0.15059916787993        0.03475266060149
C            4.49593920130448       -1.06593913957662        0.05927538583416
N            5.89882453458060       -1.08667564835515        0.05973841249933
C            6.60481022924862       -0.17489533371566       -0.73005065619557
C            6.11173400581525        0.20922794025359       -1.97755671953751
C            6.80695378583918        1.11638643343988       -2.75266980373741
C            8.00488044341682        1.64984574086483       -2.30607518079328
C            8.50044477518485        1.27074058736772       -1.06923313091942
C            7.80822827701015        0.37108566916846       -0.28252775347020
C            6.57860060837492       -2.01082523649713        0.85809697439269
C            7.76671812968664       -2.59344145920134        0.41612891721620
C            8.43323844443665       -3.50507549204671        1.21106846875556
C            7.92655878651814       -3.85943248008483        2.45080040121233
C            6.74364733512107       -3.28931598018672        2.89191246031335
C            6.07415346615327       -2.37010296322531        2.10835197115226
C            3.78321916659413       -2.27016832611330        0.08116311423673
C            2.40131268191760       -2.29365100352899        0.08664528226511
C            1.72251295226571       -1.08959652983470        0.05562113135149
N            0.36632185685660       -0.81156459766751        0.04833810931795
C           -0.91684276959323       -1.32788681958662        0.04701096167693
C           -1.35494458596176       -2.63910373554682        0.06555310588856
C           -2.71472810245013       -2.88422656230546        0.04630779267700
C           -3.63714292063990       -1.83573220510400       -0.02763724062657
N           -5.01193375762286       -2.10492763145982       -0.06596817638857
C           -5.49479729294090       -3.20842893070917       -0.77562533915469
C           -6.59245243645107       -3.92652450384547       -0.30042573411190
C           -7.07041226305333       -5.01461780060112       -1.00376740469253
C           -6.46136948839045       -5.41133511994586       -2.18315353094095
C           -5.36837252475607       -4.70468030392648       -2.65736792190020
C           -4.88815913788091       -3.60982202407148       -1.96593729036731
C           -5.90382971581070       -1.23261486054911        0.56856978314467
C           -5.56724748257833       -0.63826030561138        1.78543024525099
C           -6.43772180781207        0.24327816664566        2.39538009338705
C           -7.66009158696071        0.53847924665678        1.81390324544786
C           -8.00448974578358       -0.05677134193036        0.61149525591659
C           -7.13564477053385       -0.93105373839707       -0.01214884008597
C           -3.19602293251294       -0.51456013596772       -0.05738452548377
C           -1.84384346999945       -0.23644381580119        0.01185909515336
C           -1.07423303778402        0.99909140978568        0.01667901861251
C            0.24080612887925        0.54272645132701        0.02074339435464
H            0.09042327849145        6.39102091793364        1.16777776622328
H            1.46253795248172        5.28043388358442        1.12499326694631
H            0.03645871085490        4.88492511724267        2.08999246159759
H           -0.04664788731501        6.31072828268118       -1.38345165124753
H           -0.20829879201166        4.75155089718226       -2.19895325421639
H            1.31973340300498        5.19139063829141       -1.42889252540402
H           -2.19790717989022        6.73585083847150        0.05170715107689
H           -4.62913761370281        6.36460754524107        0.24694941515540
H           -5.53021944659376        4.08159873045098        0.38880649024780
H           -4.03826218316723        2.14193671819896        0.31122832188523
H            2.20641806143774        3.25029755821144       -0.06272772707349
H            4.36789610311390        1.07938375027777        0.02290110598296
H            5.18270848536413       -0.21150697480295       -2.33360814627187
H            6.41384179519798        1.40226467652563       -3.71741878809297
H            8.54750275207056        2.35556238899711       -2.91661080899588
H            9.43027217639097        1.68612502312963       -0.70891071259963
H            8.19217121422941        0.08750347948138        0.68652184971202
H            8.15878302814300       -2.32820731682168       -0.55487358351261
H            9.35144343526650       -3.94919681408787        0.85532427122837
H            8.44913989122430       -4.57448643711694        3.06786099248110
H            6.34263610886595       -3.55574128336840        3.85896230963298
H            5.15707020037363       -1.92004886284498        2.45954594680246
H            4.33281053776860       -3.19952664377965        0.09351158662294
H            1.87136800004618       -3.23322899161437        0.10445628633927
H           -0.65308584825288       -3.45761422666478        0.10350696523864
H           -3.07647929284845       -3.90083366168998        0.07998769473283
H           -7.06331193664912       -3.62501236205656        0.62390084918890
H           -7.92022013915520       -5.56224757308890       -0.62328952605180
H           -6.83592133142965       -6.26419025987328       -2.72857386429551
H           -4.89053379542440       -5.00259819029491       -3.57925699437704
H           -4.04284854895193       -3.05410385691903       -2.34481522206191
H           -4.61817205767860       -0.87140723555222        2.24578995858761
H           -6.16145213392579        0.69822325289354        3.33532761077274
H           -8.33870420409914        1.22678298622615        2.29447135190494
H           -8.95355901985533        0.16987583409243        0.14804968467005
H           -7.40169707017993       -1.38179778958595       -0.95711215760881
H           -3.92216598895425        0.27621789850584       -0.14608393440733
