  100
       -154.44368453
 C         -6.3270910150        4.1060484127        2.8522487587
 C         -5.4698241571        4.0156056698        1.6264273067
 C         -5.0165450028        5.1536374676        0.9723809812
 C         -4.2401624461        5.0405062636       -0.1657232071
 C         -3.8847897732        3.8080358169       -0.6958043570
 C         -3.0699222262        3.7473210231       -1.9520563269
 C         -4.3231046229        2.6571574616       -0.0278483022
 N         -3.9982884335        1.3682153146       -0.4858698231
 C         -2.7114025792        1.0219925679       -0.9217782859
 C         -2.6019931704        0.2783337073       -2.0978740092
 C         -1.3802137548       -0.1237263614       -2.5806002975
 C         -0.2046369210        0.2051567997       -1.9022471855
 C          1.0738931954       -0.1726155370       -2.3939835953
 C          2.2062338655        0.1178843242       -1.7116809480
 C          2.1586848550        0.8119536714       -0.4689531257
 C          3.3096768522        1.0732548886        0.3012109856
 N          4.5478329095        0.5015127773       -0.0186956962
 C          5.6928014065        1.3192657644        0.0429665628
 C          5.6653174505        2.5284543686       -0.6485198673
 C          6.7469383791        3.3909968455       -0.6387010378
 C          6.7086749844        4.6922479332       -1.3805763657
 C          7.8773611322        3.0205383612        0.0818323139
 C          7.9020267354        1.8325677638        0.7862420636
 C          6.8174555817        0.9648582734        0.7955028363
 C          6.8610869809       -0.2863964298        1.6181859142
 C          4.6509239075       -0.8449382162       -0.3277312102
 C          5.6880847164       -1.3400377956       -1.1191868697
 C          5.7941846424       -2.6894830907       -1.4327927652
 C          4.8673670470       -3.6108047477       -0.9887500794
 C          3.8185072819       -3.1471987737       -0.2010016594
 C          3.7245648398       -1.7868034583        0.1325435307
 O          2.6453606592       -1.5361170913        0.9312716731
 C          2.0225229194       -2.7281490822        1.1132751000
 C          0.8772367075       -2.9508791293        1.8570416443
 C          0.4112777959       -4.2518866572        1.9265505232
 C          1.0623646299       -5.2929700222        1.2684792740
 C          2.2027889819       -5.0680076362        0.5227180578
 C          2.6932467463       -3.7711429339        0.4447395598
 C          3.2262952203        1.8958832760        1.4227124154
 C          2.0133947506        2.3803369722        1.8546340350
 C          0.8323313345        2.0438656240        1.1883107204
 C         -0.4445799613        2.4311084594        1.6757543031
 C         -1.5827788140        2.0964424615        1.0232235878
 C         -1.5503549775        1.3722465706       -0.2036351065
 C         -0.2868722333        0.9565115549       -0.7044916003
 C          0.9023201003        1.2724263951        0.0026996447
 C         -4.9837254469        0.3850610229       -0.5100372102
 C         -6.3293508444        0.6834318545       -0.7252029703
 C         -7.3090530183       -0.3010021268       -0.7362552914
 C         -6.9989678061       -1.6338945835       -0.5520386687
 C         -5.6640080986       -1.9664698899       -0.3503643932
 C         -4.6772826647       -0.9663522355       -0.3214358357
 O         -3.4351999871       -1.4900471765       -0.1047088174
 C         -3.6007414115       -2.8342499918       -0.0062502056
 C         -2.6007001279       -3.7703848575        0.1859890972
 C         -2.9846022364       -5.0972416009        0.2572939170
 C         -4.3198419650       -5.4761464126        0.1382519483
 C         -5.3154144340       -4.5401588690       -0.0631857052
 C         -4.9541190215       -3.2013624917       -0.1393586621
 C         -5.1118776223        2.7794222515        1.1157684673
 H         -6.3141292422        5.1131176362        3.2612881054
 H         -7.3579003429        3.8475022243        2.6090411929
 H         -5.9815996458        3.4109608645        3.6152519162
 H         -5.2754281128        6.1314664224        1.3507627403
 H         -3.9072475403        5.9371052487       -0.6690039676
 H         -2.0211363659        3.5523060049       -1.7258337961
 H         -3.4226419641        2.9557875311       -2.6096607590
 H         -3.1320009823        4.6952529115       -2.4819187619
 H         -3.5043888642        0.0256943422       -2.6380486107
 H         -1.3209758012       -0.6931845052       -3.4970134609
 H          1.1223275837       -0.6987630951       -3.3371283550
 H          3.1654194645       -0.1625203211       -2.1202636364
 H          4.7727119731        2.7833068607       -1.2027363730
 H          5.8269279064        4.7536667681       -2.0132453069
 H          7.5961219509        4.8047659102       -2.0011521986
 H          6.6867919713        5.5247645680       -0.6774190729
 H          8.7375898542        3.6735169150        0.0990334752
 H          8.7808472681        1.5732845151        1.3595161304
 H          7.5801150394       -0.1774406408        2.4271422851
 H          5.8834316522       -0.5057504652        2.0433496586
 H          7.1572832900       -1.1425312828        1.0105694165
 H          6.4191251215       -0.6432887715       -1.5020862315
 H          6.6200387364       -3.0145455346       -2.0480352564
 H          4.9481544362       -4.6560740507       -1.2399022259
 H          0.3759468467       -2.1363044091        2.3553821108
 H         -0.4773685507       -4.4640892972        2.5023718444
 H          0.6658676257       -6.2944033647        1.3469429428
 H          2.7052608163       -5.8760943830        0.0133599915
 H          4.1298136084        2.1210926930        1.9714858443
 H          1.9621817184        2.9961505377        2.7410025788
 H         -0.4900381377        2.9889409422        2.6006065870
 H         -2.5349766886        2.3796984458        1.4404779748
 H         -6.6092224536        1.7135277327       -0.8867104899
 H         -8.3347085433       -0.0086722183       -0.9047414128
 H         -7.7610128157       -2.3964001643       -0.5665828944
 H         -1.5688475415       -3.4688173321        0.2714484177
 H         -2.2294090249       -5.8544502876        0.4054661632
 H         -4.5776903657       -6.5228358253        0.2014288050
 H         -6.3486746640       -4.8361708570       -0.1614558538
 H         -5.4405437695        1.8797157996        1.6174381663
