  45
        -74.24150713
 O         -3.9465760881        2.4413825932       -0.1017247822
 S         -3.5904821890        1.2102253706       -0.7593384734
 O         -3.9911973236        1.0130292565       -2.1289953829
 C         -4.1978094926       -0.1638064969        0.2195994963
 C         -4.3901145637        0.0039019249        1.5805528796
 C         -4.7807305417       -1.0799174533        2.3454282090
 C         -4.9626981016       -2.3204730037        1.7494912419
 C         -4.7631088261       -2.4774659525        0.3846501497
 C         -4.3738109897       -1.3972113858       -0.3856094694
 C         -1.8529951810        0.9390275975       -0.6074813416
 C         -1.1532316216        1.4804422076        0.4852648232
 C          0.1755130794        1.2211192708        0.6485490996
 C          0.8499697457        0.3500803143       -0.2544079755
 N          2.1850230608        0.0708623041       -0.0897783644
 C          2.7695348333       -1.1760511241       -0.2268686047
 C          2.1741913704       -2.4058869250       -0.4542630455
 C          2.9946978715       -3.5266803254       -0.5265922985
 C          4.3763002275       -3.4130507153       -0.3609309116
 C          4.9777721642       -2.1941888627       -0.0919604480
 C          4.1768557245       -1.0587210040       -0.0014459848
 C          4.4304599011        0.3105031362        0.2993473213
 C          5.5796943667        1.0365928568        0.6005699535
 C          5.4720734730        2.4056922976        0.7873674916
 C          4.2488955328        3.0660042849        0.6654097707
 C          3.0841412619        2.3617155666        0.3775757771
 C          3.1734855400        0.9878738740        0.2276265787
 C          0.1161292421       -0.2275152864       -1.3306335948
 C         -1.2045474765        0.0652401122       -1.4995436675
 H         -4.2546459432        0.9841159685        2.0093069673
 H         -4.9466375118       -0.9599799835        3.4058135569
 H         -5.2652104450       -3.1657516552        2.3491403110
 H         -4.9145073676       -3.4422596250       -0.0764062954
 H         -4.2271600117       -1.4814413976       -1.4506716522
 H         -1.6923711384        2.1184644016        1.1669117069
 H          0.7144215270        1.6033703553        1.5018510652
 H          1.1037430896       -2.5034802489       -0.5479531327
 H          2.5556522347       -4.4955602498       -0.7018683310
 H          4.9860561623       -4.3018475943       -0.4271036579
 H          6.0445366686       -2.1234257905        0.0519091338
 H          6.5348159070        0.5409267050        0.6774975625
 H          6.3572214501        2.9804753565        1.0158773056
 H          4.2051689389        4.1364529031        0.7853727631
 H          2.1475912462        2.8819632625        0.2516541499
 H          0.6475525510       -0.8263250071       -2.0545662097
 H         -1.7685011975       -0.3152009607       -2.3357503306
  45
        -74.24136383
 O         -3.9330356386        2.4435362983        0.0572381722
 S         -3.5876229189        1.2557724452       -0.6809694205
 O         -3.9921577729        1.1533908473       -2.0599285214
 C         -4.2042168617       -0.1803841695        0.1982292039
 C         -4.2756991903       -0.1515918338        1.5806532984
 C         -4.6721944522       -1.2890950920        2.2595232952
 C         -4.9817623386       -2.4452238885        1.5556628590
 C         -4.9039696416       -2.4629657689        0.1701629242
 C         -4.5080583125       -1.3282662034       -0.5141468027
 C         -1.8500760862        0.9694076845       -0.5471262943
 C         -1.1226930843        1.5428434483        0.5101525462
 C          0.2067152071        1.2752782394        0.6555993450
 C          0.8520665384        0.3619170749       -0.2262435993
 N          2.1881260068        0.0767419255       -0.0789005809
 C          2.7592425394       -1.1801070129       -0.1677887293
 C          2.1493905718       -2.4136621440       -0.3261476574
 C          2.9589861280       -3.5443476671       -0.3594117847
 C          4.3445118169       -3.4355421514       -0.2243810944
 C          4.9614592222       -2.2109102211       -0.0255012133
 C          4.1720037773       -1.0647480975        0.0252898354
 C          4.4427356844        0.3149767544        0.2535316343
 C          5.6034505129        1.0455308312        0.4950516672
 C          5.5100461499        2.4235530810        0.6134465449
 C          4.2900715705        3.0877419967        0.4828500617
 C          3.1137713721        2.3795243383        0.2554581178
 C          3.1901291022        0.9994368380        0.1734569862
 C          0.0899918694       -0.2492627863       -1.2631593128
 C         -1.2298857043        0.0553281995       -1.4185489919
 H         -4.0414493707        0.7657373925        2.0972403918
 H         -4.7426223107       -1.2776594941        3.3369747804
 H         -5.2890954961       -3.3327958617        2.0882871144
 H         -5.1553103840       -3.3610106459       -0.3743060832
 H         -4.4531583047       -1.3018583095       -1.5909021767
 H         -1.6419036481        2.2123287483        1.1771478446
 H          0.7684691861        1.6853164997        1.4808777646
 H          1.0765639084       -2.5052585178       -0.3970036257
 H          2.5087108595       -4.5163677036       -0.4803299965
 H          4.9455163415       -4.3320654731       -0.2595027979
 H          6.0314194457       -2.1432314660        0.0947609264
 H          6.5561323175        0.5462616081        0.5786158390
 H          6.4042214179        3.0014018864        0.7943851146
 H          4.2570763186        4.1632690709        0.5481408605
 H          2.1783965078        2.9003440294        0.1228253892
 H          0.5988092135       -0.8855797474       -1.9711336019
 H         -1.8140700657       -0.3518094046       -2.2277753349
  45
        -74.24114823
 O         -4.0333967643        1.8165490300        1.5990640020
 S         -3.6024645286        1.4463973773        0.2752876685
 O         -3.9671114254        2.2899214887       -0.8340107432
 C         -4.1495464005       -0.2301522485       -0.0526513912
 C         -4.5251998480       -1.0396353275        1.0059149894
 C         -4.8540731567       -2.3609413543        0.7626290409
 C         -4.7912387491       -2.8644290784       -0.5289196785
 C         -4.4097783290       -2.0441137590       -1.5824853851
 C         -4.0823558105       -0.7219624398       -1.3454932345
 C         -1.8560193653        1.1840380347        0.2564565895
 C         -1.2282928320        0.6016033419        1.3728121043
 C          0.0894715510        0.2562992528        1.3134104640
 C          0.8410329652        0.4848093585        0.1245734821
 N          2.1646399168        0.1261575026        0.0477103317
 C          2.7122667923       -1.0539073762        0.5208044083
 C          2.0876477881       -2.1408305111        1.1096690456
 C          2.8735475647       -3.2287463556        1.4758954198
 C          4.2499703595       -3.2272935655        1.2423631554
 C          4.8790770588       -2.1634033839        0.6162583313
 C          4.1125120853       -1.0674082155        0.2280937350
 C          4.3995720493        0.1461995202       -0.4597842528
 C          5.5561379084        0.7004736431       -1.0022014862
 C          5.4863611702        1.9633651395       -1.5689810333
 C          4.2954972825        2.6906875987       -1.5902072437
 C          3.1226068946        2.1523903721       -1.0702265721
 C          3.1708166911        0.8726885505       -0.5429623380
 C          0.1911455291        1.0766209734       -0.9967415302
 C         -1.1345121834        1.3887902151       -0.9325382431
 H         -4.5730546429       -0.6114321078        1.9947213087
 H         -5.1603910477       -2.9993861692        1.5779500843
 H         -5.0437314269       -3.8973138669       -0.7165463014
 H         -4.3701026489       -2.4384329754       -2.5869905739
 H         -3.7947384588       -0.0573979270       -2.1448505589
 H         -1.8059727797        0.4796038996        2.2748605258
 H          0.6042473738       -0.1150986994        2.1863578584
 H          1.0194346276       -2.1628936711        1.2597851290
 H          2.4105498586       -4.0869170201        1.9356344170
 H          4.8325336361       -4.0856344553        1.5423639192
 H          5.9406006856       -2.1826815490        0.4248587244
 H          6.4879365543        0.1575308522       -0.9733475835
 H          6.3777332197        2.4057922696       -1.9882511423
 H          4.2837051554        3.6852740650       -2.0058210694
 H          2.2125337607        2.7316903154       -1.0599276425
 H          0.7437596311        1.1919299014       -1.9164459090
 H         -1.6590945526        1.8104905443       -1.7750119167
  45
        -74.24112379
 O         -3.8067741457        1.0957376480        2.2271694222
 S         -3.5116333393        1.2116013279        0.8213824130
 O         -3.8667602284        2.4295182535        0.1375097145
 C         -4.2913164895       -0.1583436063       -0.0380919332
 C         -4.8025673575        0.0382984840       -1.3088018680
 C         -5.3757962014       -1.0275574003       -1.9792136314
 C         -5.4222748919       -2.2781029790       -1.3803090639
 C         -4.8999839251       -2.4650118250       -0.1076552271
 C         -4.3279389570       -1.4023268324        0.5677843265
 C         -1.7957976847        0.8730928446        0.5691613436
 C         -1.0637362526        0.1993559497        1.5625427616
 C          0.2558080682       -0.0830835383        1.3676635948
 C          0.9039016024        0.3009903862        0.1570462477
 N          2.2403877139        0.0448458803       -0.0279312817
 C          2.8919684754       -1.1210733021        0.3367861747
 C          2.3697471317       -2.2997871763        0.8430196857
 C          3.2493736524       -3.3426864531        1.1156094351
 C          4.6170883338       -3.2064921882        0.8697287257
 C          5.1445663355       -2.0490284710        0.3204917450
 C          4.2828040592       -0.9951464418        0.0257024718
 C          4.4545484953        0.2864581885       -0.5696350574
 C          5.5535191729        0.9754592071       -1.0770228165
 C          5.3712957769        2.2668435930       -1.5455237534
 C          4.1232522067        2.8899394480       -1.5035333868
 C          3.0073854605        2.2190762077       -1.0119688638
 C          3.1686560386        0.9133404253       -0.5797716708
 C          0.1415407559        0.9620517985       -0.8485586858
 C         -1.1832394657        1.2178179565       -0.6484923080
 H         -4.7645171848        1.0280691746       -1.7358055942
 H         -5.7918731603       -0.8839310362       -2.9652524342
 H         -5.8716510624       -3.1087069840       -1.9039408596
 H         -4.9453813863       -3.4386494679        0.3571430024
 H         -3.9320605344       -1.5123451009        1.5650864277
 H         -1.5638005141       -0.0282559058        2.4902279681
 H          0.8517492356       -0.5127122098        2.1582662331
 H          1.3095189249       -2.4238252582        0.9999136457
 H          2.8671501549       -4.2697276835        1.5113714786
 H          5.2744912629       -4.0323661073        1.0976956011
 H          6.2009284249       -1.9637223626        0.1188243383
 H          6.5275200525        0.5119025274       -1.0956504178
 H          6.2167965125        2.8130510510       -1.9366809273
 H          4.0221089961        3.9072517029       -1.8454833977
 H          2.0542427605        2.7201798684       -0.9490476994
 H          0.6117099134        1.1851426119       -1.7939794433
 H         -1.7828877260        1.7039219159       -1.4013504634
  45
        -74.23773233
 O         -3.6055590559        2.2550945233        0.8155951216
 S         -3.4721662870        1.2914207311       -0.2504469979
 O         -3.8481766711        1.7038105454       -1.5788893436
 C         -4.4141672229       -0.1663600929        0.2059962457
 C         -4.7340194173       -0.3680903677        1.5365439060
 C         -5.4522665176       -1.4953597338        1.8966401789
 C         -5.8433334642       -2.4034397143        0.9242381588
 C         -5.5196958945       -2.1889630316       -0.4079623811
 C         -4.7964901272       -1.0657450036       -0.7712696983
 C         -1.7749952076        0.7555676482       -0.2972323015
 C         -1.2688986500       -0.1306423231        0.6657159460
 C          0.0636434024       -0.4361231380        0.6849287756
 C          0.9513151039        0.1794827983       -0.2381884596
 N          2.3090173801       -0.0208744456       -0.1499892733
 C          2.9507887718       -1.2266722997        0.0547886133
 C          2.4218879448       -2.5038783928        0.1255136654
 C          3.3014642093       -3.5687497123        0.3078378239
 C          4.6781940905       -3.3467558642        0.4098345287
 C          5.2231396868       -2.0777060057        0.3086656808
 C          4.3662040530       -0.9941454244        0.1079090256
 C          4.5613637618        0.3992171013       -0.0832645271
 C          5.6835632573        1.2288322073       -0.1210621739
 C          5.4964092361        2.5970598932       -0.2570662202
 C          4.2243326436        3.1589860811       -0.3508651992
 C          3.0862806109        2.3497372850       -0.3329619214
 C          3.2628315517        0.9825770764       -0.2308628093
 C          0.4178345846        1.0524925022       -1.2271937762
 C         -0.9219444210        1.3139922176       -1.2595666279
 H         -4.4339404756        0.3749348508        2.2592905098
 H         -5.7141260078       -1.6618565830        2.9309298231
 H         -6.4100739458       -3.2788985722        1.2048315515
 H         -5.8359855402       -2.8953425383       -1.1607047308
 H         -4.5425617652       -0.8588945979       -1.7990480080
 H         -1.9414909068       -0.5522834479        1.3966884521
 H          0.4730003339       -1.0715013223        1.4553261377
 H          1.3625349835       -2.6801109721        0.0199183965
 H          2.9166415786       -4.5740094153        0.3618534757
 H          5.3330551593       -4.1931089997        0.5568186092
 H          6.2889395811       -1.9250895598        0.3747377694
 H          6.6746729421        0.8117233813       -0.0364099083
 H          6.3581698412        3.2479391429       -0.2771813147
 H          4.1127489015        4.2281634448       -0.4271643367
 H          2.1018621655        2.7896947894       -0.3700449123
 H          1.0804467798        1.4457924683       -1.9830593801
 H         -1.3600186358        1.9478458522       -2.0140615500
