  93
       -141.22845718
 C          1.0413306091       -2.3655303705       -2.6990148131
 C          1.2724881448       -2.3426934696       -1.2172054111
 C          2.5466173870       -2.1155343626       -0.7227167204
 C          2.8193548585       -2.0648885958        0.6403847595
 C          4.2158384010       -1.8680158248        1.0716618527
 C          4.8250714044       -2.7537275617        1.9567156041
 C          6.1427503626       -2.5699114499        2.3341047908
 C          6.8705568717       -1.5013209285        1.8439822809
 C          6.2783201235       -0.6196708002        0.9441153973
 N          7.0119681649        0.4589788872        0.4307452699
 C          6.6041423480        1.7772917789        0.4076565239
 C          5.4329751213        2.3507264863        0.8826965075
 C          5.2851670339        3.7183864202        0.7531432650
 C          6.2775481776        4.5068044235        0.1746503687
 C          7.4547629453        3.9458594505       -0.2780495502
 C          7.6264151896        2.5729400477       -0.1600380392
 C          8.6984215545        1.6796507863       -0.4981382673
 C          9.9425316614        1.8601796665       -1.0882549716
 C         10.7421486802        0.7546420442       -1.2975806673
 C         10.3081512556       -0.5206870459       -0.9417515116
 C          9.0753664349       -0.7254349129       -0.3526060154
 C          8.2779069686        0.3852525595       -0.1146767726
 C          4.9573426179       -0.8112906905        0.5570223298
 C          1.7676158076       -2.1954508642        1.5511212763
 C          1.9663617878       -2.0755930449        3.0334945538
 C          0.4924427477       -2.4194746490        1.0551060950
 C          0.2303113277       -2.5233710888       -0.3050853246
 C         -1.1513354944       -2.8010729437       -0.7423251477
 C         -1.4558284077       -3.9246277135       -1.5046468346
 C         -2.7650966037       -4.1836581677       -1.8711056489
 C         -3.7752488648       -3.3094407190       -1.5183376501
 C         -3.4813557748       -2.1650289464       -0.7783053569
 C         -4.5623601725       -1.2455384118       -0.4560818289
 N         -5.7749119550       -1.6235656006       -0.1426475363
 C         -6.4754062730       -0.4811500435        0.0857395517
 C         -7.8332349150       -0.3563363020        0.4912220874
 C         -8.6279358662       -1.4848468516        0.7190830516
 C         -9.9282046156       -1.3445576488        1.1349142350
 C        -10.4494448458       -0.0671351833        1.3312489049
 C         -9.6782194695        1.0491820830        1.1064650957
 C         -8.3469619458        0.9479088238        0.6741149330
 C         -7.5171615394        2.1076444026        0.3970615990
 C         -8.0177647387        3.4129291795        0.5049029287
 C         -7.2540551360        4.5150168970        0.2012250988
 C         -5.9459550070        4.3567163179       -0.2456536254
 C         -5.4135318147        3.0959453449       -0.3556515958
 C         -6.1661247451        1.9607110276       -0.0221045573
 C         -5.6613348206        0.6331830958       -0.1121927759
 N         -4.4277314502        0.1268450722       -0.4519724066
 C         -3.2267913171        0.8047622118       -0.7357891476
 C         -2.6296529388        0.6482397319       -1.9814017529
 C         -1.4087177191        1.2456805447       -2.2364396435
 C         -0.7840540699        2.0006962274       -1.2578853086
 C         -1.3857658373        2.1659991468       -0.0206447413
 C         -2.6032360232        1.5680101203        0.2469721073
 C         -2.1717674284       -1.9385186066       -0.3661596166
 H          1.2004305354       -3.3680177293       -3.0963819239
 H          0.0242137056       -2.0638172557       -2.9379150281
 H          1.7378981730       -1.6960491711       -3.1996193425
 H          3.3646321823       -1.9904829471       -1.4187990507
 H          4.2676497481       -3.5974436113        2.3331152225
 H          6.6061040242       -3.2606670207        3.0229573015
 H          7.8896563158       -1.3381786342        2.1599981501
 H          4.6648469786        1.7524657424        1.3492013305
 H          4.3808632611        4.1873480997        1.1123601176
 H          6.1227481163        5.5720704184        0.0898483212
 H          8.2309475560        4.5579956905       -0.7119484593
 H         10.2712164416        2.8464541798       -1.3793020044
 H         11.7143920615        0.8732188287       -1.7520689647
 H         10.9484288215       -1.3690136074       -1.1337753197
 H          8.7412955005       -1.7197701740       -0.0971642082
 H          4.5039676884       -0.1317788213       -0.1491459240
 H          2.0698276564       -3.0620244897        3.4861389425
 H          2.8578026077       -1.4988950627        3.2672836593
 H          1.1035038673       -1.5934835835        3.4890029025
 H         -0.3285931851       -2.5336452932        1.7495486631
 H         -0.6673974375       -4.6068646231       -1.7854399136
 H         -2.9970930393       -5.0699206615       -2.4431126858
 H         -4.7979153233       -3.4918174369       -1.8085893629
 H         -8.1822925496       -2.4547684180        0.5624798064
 H        -10.5448973257       -2.2128442022        1.3137887360
 H        -11.4710510458        0.0486357682        1.6632249018
 H        -10.1243583237        2.0164355961        1.2741374015
 H         -9.0338565859        3.5723298344        0.8272221489
 H         -7.6748809785        5.5050728414        0.2972432308
 H         -5.3528803363        5.2201169135       -0.5086491495
 H         -4.4051041641        2.9763346945       -0.7187292067
 H         -3.1227835609        0.0524355483       -2.7351414623
 H         -0.9438409313        1.1197422977       -3.2025381633
 H          0.1715776046        2.4606509321       -1.4582182190
 H         -0.9014347600        2.7553849491        0.7433504388
 H         -3.0765663029        1.6815299491        1.2116579116
 H         -1.9287223294       -1.0879302466        0.2520651793
