  103
       -171.01770227
 N         -1.1421011469       -3.1477721628        2.4471259821
 C         -1.0993272574       -2.2704125284        1.7103280623
 C         -1.0512861377       -1.1447359991        0.8552922332
 C         -2.2551168422       -0.6084806211        0.3708735098
 N         -3.4615709659       -1.2484705189        0.6354952663
 C         -4.5948198064       -0.6314855679        1.1388380609
 C         -4.7150028662        0.6021123633        1.7565548717
 C         -5.9727706035        0.9875840459        2.1804264611
 C         -7.0764252229        0.1546230175        2.0216890836
 C         -6.9461393596       -1.1026259352        1.4634331335
 C         -5.6938802065       -1.5073594871        1.0243210795
 C         -5.1927197789       -2.7176060241        0.4319681189
 C         -5.7897402483       -3.9128469644        0.0580702094
 C         -5.0077412621       -4.8890184896       -0.5280699151
 C         -3.6504864148       -4.6793909431       -0.7531233430
 C         -3.0359160899       -3.4950746194       -0.3918451164
 C         -3.8121767051       -2.5221270650        0.2148243516
 C         -2.2228972017        0.5907616946       -0.3616896725
 N         -3.3932244981        1.1411863201       -0.8742060859
 C         -4.3550244831        0.4386306602       -1.5815641499
 C         -4.2524909469       -0.7947712757       -2.2028006787
 C         -5.3699021437       -1.2788754831       -2.8564134131
 C         -6.5487132871       -0.5414228624       -2.9164282182
 C         -6.6316421963        0.7173700131       -2.3525842470
 C         -5.5238035743        1.2202208964       -1.6858707076
 C         -5.2460331647        2.4622998723       -1.0173084310
 C         -5.9999185213        3.6010715449       -0.7733272121
 C         -5.4273305962        4.6335354410       -0.0561804546
 C         -4.1253606121        4.5345400287        0.4251972333
 C         -3.3579441334        3.4074057837        0.1977139348
 C         -3.9213611360        2.3786179477       -0.5379996608
 C         -0.9869990185        1.2173688206       -0.5899713727
 C         -0.9381814684        2.3377492819       -1.4516089611
 N         -0.8932935699        3.2094226391       -2.1952614092
 C          0.2164667164        0.6819782926       -0.1049196247
 N          1.4247146470        1.3248497949       -0.3659019469
 C          1.7947560993        2.5715239858        0.1230458124
 C          1.0139252875        3.5744253997        0.6703150715
 C          1.6508728625        4.7185909912        1.1153216653
 C          3.0330034997        4.8595635556        1.0315076524
 C          3.8194698685        3.8534092431        0.5054151515
 C          3.1988102701        2.6997815515        0.0488905381
 C          3.6933301783        1.4763856001       -0.5117077651
 C          4.9512594017        0.9548378588       -0.7742998692
 S          6.4883703265        1.7043167228       -0.4383580884
 C          7.3329361370        0.2871494632       -1.0311340955
 C          8.7066440914        0.1209931153       -1.0723956242
 C          9.2103109380       -1.0670166689       -1.5668952351
 C          8.3548639482       -2.0714421873       -2.0100062030
 C          6.9861696210       -1.9023639998       -1.9693056241
 C          6.4538544637       -0.7126243044       -1.4797411084
 C          5.0753109100       -0.3259825593       -1.3373662632
 C          3.9348503048       -1.0504525962       -1.6932742461
 C          2.6766398495       -0.5591438218       -1.4255644615
 C          2.5717554474        0.6677521388       -0.7788958139
 C          0.1841109815       -0.5165655316        0.6320186348
 N          1.3505250101       -1.0738514350        1.1507151754
 C          1.8922294890       -2.2970162639        0.7800174731
 C          1.3296226184       -3.3226597871        0.0398858690
 C          2.1132866047       -4.4290100318       -0.2317646314
 C          3.4303132786       -4.5104727441        0.2102070001
 C          4.0008499185       -3.4821156103        0.9351553113
 C          3.2300754578       -2.3658772399        1.2248430224
 C          3.5041210788       -1.1315505024        1.9079884182
 C          4.6251376010       -0.6154560203        2.5413416364
 C          4.5358460090        0.6322593971        3.1286535634
 C          3.3393209881        1.3430662064        3.1258661985
 C          2.2107264123        0.8484054252        2.4992196288
 C          2.3187741702       -0.3701554911        1.8505366458
 H         -3.8620749676        1.2444231693        1.9106419176
 H         -6.0982795677        1.9536577888        2.6457828570
 H         -8.0438882600        0.4923869055        2.3605954408
 H         -7.7970294952       -1.7601019878        1.3735613217
 H         -6.8449765794       -4.0702999827        0.2194313349
 H         -5.4518357505       -5.8274421955       -0.8231007852
 H         -3.0647123674       -5.4560424786       -1.2217352060
 H         -1.9851088251       -3.3450585613       -0.5849675577
 H         -3.3354615551       -1.3627299102       -2.1865325001
 H         -5.3236469635       -2.2471784741       -3.3316238517
 H         -7.4024193838       -0.9547945973       -3.4312290223
 H         -7.5355310702        1.3014086084       -2.4311617545
 H         -7.0144155624        3.6721402891       -1.1340862352
 H         -5.9955264229        5.5295475941        0.1417914267
 H         -3.7055070732        5.3531207635        0.9905095549
 H         -2.3550796509        3.3424008702        0.5901671245
 H         -0.0574003289        3.4811789920        0.7510244285
 H          1.0613467743        5.5184919632        1.5377941083
 H          3.4926334056        5.7682846541        1.3888765837
 H          4.8925507791        3.9512109959        0.4507791339
 H          9.3617040407        0.9044295604       -0.7242210902
 H         10.2784530989       -1.2173451568       -1.6067478292
 H          8.7690726167       -2.9940839952       -2.3879505230
 H          6.3241370524       -2.6845721265       -2.3089044855
 H          4.0460701033       -2.0125246062       -2.1676221436
 H          1.7969940515       -1.1187305973       -1.7029068652
 H          0.3147420983       -3.2720621606       -0.3221117537
 H          1.6944836969       -5.2442537701       -0.8028469202
 H          4.0117660638       -5.3891584982       -0.0244377853
 H          5.0274204944       -3.5371914038        1.2634129570
 H          5.5448525948       -1.1793025473        2.5737985986
 H          5.3998935451        1.0581247651        3.6151954481
 H          3.2895299760        2.3010446210        3.6211045972
 H          1.2821781650        1.3979889337        2.5203076321
