  103
  -170.395523085800       0.393940426686407      !
 N         -2.1757495722        3.2292396890        2.3545412276
 C         -1.8498598251        2.4386059029        1.5906145935
 C         -1.4263268248        1.4204692683        0.7051073744
 C         -2.3373750909        0.4128388348        0.3481466092
 N         -3.6645058848        0.4996021508        0.7557048414
 C         -4.5534677733        1.5004069999        0.3945533844
 C         -4.3186659259        2.6858964403       -0.2812437321
 C         -5.4025662864        3.4989902069       -0.5549247505
 C         -6.6924147763        3.1375497263       -0.1776959170
 C         -6.9332644029        1.9454677030        0.4772509665
 C         -5.8592749965        1.1159310085        0.7658637876
 C         -5.7481308708       -0.1726993240        1.3934633587
 C         -6.6661849218       -1.0424654241        1.9638148127
 C         -6.2045059086       -2.2216971151        2.5165759752
 C         -4.8451593412       -2.5197202300        2.5396178734
 C         -3.9124216842       -1.6647524871        1.9833464920
 C         -4.3797348728       -0.5129139102        1.3729574562
 C         -1.8838057539       -0.6845804816       -0.4036632036
 N         -2.7558510815       -1.7022145393       -0.7768716387
 C         -2.6513402590       -3.0320013558       -0.3980992902
 C         -1.6174484352       -3.6849614071        0.2514658028
 C         -1.7867458817       -5.0235490418        0.5525953337
 C         -2.9607971424       -5.6960843987        0.2273937691
 C         -4.0029113687       -5.0426744088       -0.4012409112
 C         -3.8530434915       -3.6998766783       -0.7162677186
 C         -4.7177228494       -2.7272034786       -1.3270482859
 C         -6.0036974136       -2.7794223902       -1.8448984651
 C         -6.5428901182       -1.6310116221       -2.3923609348
 C         -5.8034457084       -0.4540698820       -2.4639618551
 C         -4.5183844098       -0.3813463648       -1.9605029594
 C         -4.0014195724       -1.5129410006       -1.3522395007
 C         -0.5350238108       -0.7342620409       -0.7925488157
 C         -0.1139558553       -1.7578740790       -1.6728852962
 N          0.2153951370       -2.5553821831       -2.4284315883
 C          0.3725050736        0.2777836094       -0.4446277463
 N          1.6954540439        0.2172364161       -0.8760747004
 C          2.3723916122        1.2729144208       -1.4660876494
 C          1.8608576685        2.4066591027       -2.0744379875
 C          2.7619383840        3.3143018678       -2.5986123445
 C          4.1344450069        3.0874021057       -2.5426775281
 C          4.6449417340        1.9290404451       -1.9894978870
 C          3.7568329836        1.0073100626       -1.4539151797
 C          3.9147931731       -0.2749723941       -0.8332772303
 C          5.0073810321       -1.0565922055       -0.4881812498
 S          6.6883499721       -0.6791306835       -0.7527169518
 C          7.1675435180       -2.1852535519        0.0055907673
 C          8.4682517606       -2.6264541814        0.1775644390
 C          8.6726707747       -3.8449608235        0.7963938100
 C          7.5948584173       -4.6080762059        1.2349244852
 C          6.2995736588       -4.1652426720        1.0632223423
 C          6.0667395431       -2.9404741863        0.4432737946
 C          4.8157836551       -2.2855731191        0.1628526737
 C          3.5232623801       -2.7169853697        0.4727839677
 C          2.4244463518       -1.9505196167        0.1521533948
 C          2.6251971963       -0.7402737321       -0.5030283297
 C         -0.0761293677        1.3662008323        0.3251282007
 N          0.8079350567        2.3632832944        0.7250894681
 C          2.0538478386        2.1304298291        1.2862716198
 C          2.5388664117        0.9781195908        1.8816737008
 C          3.8339445136        1.0013948452        2.3644103636
 C          4.6140525287        2.1510328903        2.2855293857
 C          4.1048622587        3.3230426941        1.7591020550
 C          2.8091080210        3.3204983337        1.2636605772
 C          1.9670305317        4.3268954003        0.6761563098
 C          2.1550083860        5.6686463504        0.3783847427
 C          1.1258006746        6.3635656379       -0.2266493126
 C         -0.0732050661        5.7329340052       -0.5445161620
 C         -0.2806061010        4.3959187096       -0.2604487983
 C          0.7411520975        3.7011591538        0.3639212430
 H         -3.3274363608        2.9751597802       -0.5938359050
 H         -5.2441420153        4.4317207019       -1.0752292661
 H         -7.5133660728        3.7990366544       -0.4086216653
 H         -7.9353528398        1.6592067446        0.7567072763
 H         -7.7170563235       -0.7977282133        1.9780389569
 H         -6.9034034810       -2.9164703015        2.9568217926
 H         -4.5094417272       -3.4349754735        3.0035688316
 H         -2.8592641355       -1.8931183050        2.0325366779
 H         -0.7057237288       -3.1761896189        0.5232156289
 H         -0.9918142483       -5.5562737443        1.0528148690
 H         -3.0556249168       -6.7416642630        0.4777718635
 H         -4.9186955082       -5.5609122208       -0.6400617602
 H         -6.5665368762       -3.6997645212       -1.8220788252
 H         -7.5460122658       -1.6475589753       -2.7902353883
 H         -6.2390052159        0.4204638805       -2.9233991065
 H         -3.9447392085        0.5281642016       -2.0465781157
 H          0.7983718956        2.5813675008       -2.1439821641
 H          2.3913038240        4.2168477859       -3.0607673609
 H          4.8063620094        3.8233505730       -2.9567907896
 H          5.7064276119        1.7368533840       -1.9738113983
 H          9.2971517603       -2.0271229956       -0.1655712308
 H          9.6789648244       -4.2075437399        0.9402166637
 H          7.7759925793       -5.5586910054        1.7135340990
 H          5.4659565784       -4.7619126398        1.4018462377
 H          3.3903707965       -3.6610315841        0.9777177230
 H          1.4347585255       -2.2896282629        0.4122784663
 H          1.9325210188        0.0902677510        1.9732737071
 H          4.2460487406        0.1090057439        2.8115385725
 H          5.6252890832        2.1275822798        2.6617339934
 H          4.6996147503        4.2229275578        1.7342254703
 H          3.0893456418        6.1544562507        0.6136015301
 H          1.2500099937        7.4093872858       -0.4626335960
 H         -0.8583586471        6.2978053817       -1.0244931548
 H         -1.2133048203        3.9219083343       -0.5227819916
  103
  -170.395217601100       0.285127760671417      !
 N         -2.0886213508        3.1697059921        2.4045718393
 C         -1.7934250120        2.3784842616        1.6292705833
 C         -1.4058602294        1.3623190877        0.7253777792
 C         -2.3377522193        0.3746350155        0.3665267839
 N         -3.6563503773        0.4722288858        0.7974697500
 C         -4.5362545377        1.4962881518        0.4799117972
 C         -4.2945584006        2.6997854099       -0.1606796401
 C         -5.3707168903        3.5360321057       -0.3922101112
 C         -6.6600607960        3.1804233447       -0.0079583668
 C         -6.9085323441        1.9706817676        0.6107697650
 C         -5.8423469175        1.1176094758        0.8563639841
 C         -5.7415991706       -0.1923696181        1.4400270045
 C         -6.6649992162       -1.0692916675        1.9903644762
 C         -6.2130662253       -2.2726034572        2.4974728445
 C         -4.8574607603       -2.5876128248        2.4976991484
 C         -3.9196015122       -1.7258997192        1.9608244918
 C         -4.3784547355       -0.5495940617        1.3920420467
 C         -1.9135033734       -0.7164573627       -0.4129048493
 N         -2.8148787060       -1.6997106144       -0.8073277604
 C         -2.7485941239       -3.0438516692       -0.4734131796
 C         -1.7302986865       -3.7495046006        0.1450701460
 C         -1.9393493660       -5.0916611267        0.4026185342
 C         -3.1362102160       -5.7164391755        0.0653513073
 C         -4.1620124055       -5.0108274193       -0.5328842157
 C         -3.9724869974       -3.6636360859       -0.8044459018
 C         -4.8106566764       -2.6458581065       -1.3776492771
 C         -6.1001601577       -2.6419770164       -1.8894427339
 C         -6.6062117811       -1.4607935741       -2.3974874988
 C         -5.8309542794       -0.3056202407       -2.4367476551
 C         -4.5418904079       -0.2885970379       -1.9385547946
 C         -4.0574177080       -1.4541241226       -1.3687112091
 C         -0.5695082456       -0.7865834264       -0.8152979020
 C         -0.1652078507       -1.8099210533       -1.7035503025
 N          0.1584993343       -2.6095611992       -2.4587640572
 C          0.3560616716        0.2086365645       -0.4693707085
 N          1.6701964339        0.1494918887       -0.9323242180
 C          2.3147660858        1.2156874292       -1.5399694078
 C          1.7658824275        2.3214011019       -2.1668204169
 C          2.6364342315        3.2458557071       -2.7127266845
 C          4.0155733655        3.0640914087       -2.6543495801
 C          4.5642776585        1.9364224829       -2.0749071831
 C          3.7069442093        0.9972591844       -1.5196975486
 C          3.9049926597       -0.2629868258       -0.8666488683
 C          5.0223828391       -0.9843601836       -0.4748324027
 S          6.6891374713       -0.5320207332       -0.7065117669
 C          7.2186162776       -1.9766282276        0.1328002425
 C          8.5339498322       -2.3355096650        0.3719449849
 C          8.7808581434       -3.5099522675        1.0567764525
 C          7.7299578796       -4.3109457200        1.4931294411
 C          6.4199392035       -3.9510368296        1.2525267614
 C          6.1440179450       -2.7717509880        0.5654939677
 C          4.8709456583       -2.1967295156        0.2165702694
 C          3.5913853212       -2.6812180707        0.5026614892
 C          2.4668828146       -1.9739266264        0.1368037785
 C          2.6302352186       -0.7681235155       -0.5367938850
 C         -0.0642790248        1.2936341689        0.3198026678
 N          0.8424149895        2.2748994215        0.7112706622
 C          2.0893743396        2.0142692046        1.2579948889
 C          2.5442960569        0.8597617115        1.8721967894
 C          3.8446868744        0.8519284394        2.3412726235
 C          4.6608106770        1.9729992249        2.2253461660
 C          4.1839724411        3.1486370243        1.6770308698
 C          2.8819809323        3.1783660399        1.1988410433
 C          2.0630175983        4.1986904838        0.6026552014
 C          2.2886819861        5.5265740417        0.2711720628
 C          1.2707084829        6.2417117666       -0.3292494076
 C          0.0441743043        5.6457946119       -0.6065070794
 C         -0.2009149536        4.3226895520       -0.2893188794
 C          0.8121736503        3.6069126829        0.3247996204
 H         -3.3038704983        2.9870517548       -0.4766810809
 H         -5.2059853502        4.4838047646       -0.8825332503
 H         -7.4747161628        3.8606961361       -0.2039834699
 H         -7.9105172282        1.6886173284        0.8949989217
 H         -7.7125360885       -0.8125261134        2.0227488165
 H         -6.9165712907       -2.9738052384        2.9196065040
 H         -4.5286796513       -3.5214861856        2.9283016899
 H         -2.8688043212       -1.9676645583        1.9933008913
 H         -0.8005571656       -3.2785724355        0.4247401851
 H         -1.1577493907       -5.6654345051        0.8777256419
 H         -3.2616868862       -6.7663801211        0.2816256738
 H         -5.0950950674       -5.4922359600       -0.7817797826
 H         -6.6909889678       -3.5448483067       -1.8929008412
 H         -7.6108850098       -1.4339242446       -2.7908480269
 H         -6.2409440616        0.5956885264       -2.8670614585
 H         -3.9404335301        0.6048197707       -2.0002822590
 H          0.6977183003        2.4606849283       -2.2335177033
 H          2.2367650475        4.1261452576       -3.1930930841
 H          4.6627412203        3.8118457430       -3.0863691598
 H          5.6316269736        1.7808122393       -2.0539697161
 H          9.3411318526       -1.7064037670        0.0303397237
 H          9.7991675093       -3.8067790808        1.2560661895
 H          7.9441124304       -5.2247669023        2.0265899480
 H          5.6079907637       -4.5764844637        1.5918406088
 H          3.4888720328       -3.6174497503        1.0290008066
 H          1.4856022356       -2.3500179389        0.3795358624
 H          1.9100680845       -0.0057154178        1.9880378121
 H          4.2331854172       -0.0429715491        2.8042455481
 H          5.6757710095        1.9246114986        2.5891789128
 H          4.8081568658        4.0270324129        1.6228140825
 H          3.2430749105        5.9861277178        0.4768188197
 H          1.4247673817        7.2771497889       -0.5920034125
 H         -0.7322879462        6.2270693203       -1.0809882993
 H         -1.1546911477        3.8739183753       -0.5188912698
  103
  -170.395041864600       0.236742701829338      !
 N         -1.5008202656        2.1381955752        3.2213271184
 C         -1.3483930020        1.4518392902        2.3157103740
 C         -1.1715275430        0.6597567919        1.1573210646
 C         -2.2929330435        0.0449590847        0.5777408909
 N         -3.5329248364        0.1210545046        1.2036587262
 C         -4.7136472993        0.4972832830        0.5850928809
 C         -4.8964416714        1.1463712702       -0.6244743494
 C         -6.1934434453        1.4175757411       -1.0175007566
 C         -7.2784378863        1.0795718916       -0.2139986660
 C         -7.0938258894        0.4896832820        1.0218204469
 C         -5.8005506902        0.2018322783        1.4333574310
 C         -5.2431668964       -0.3710953958        2.6282706793
 C         -5.8028606938       -0.8712463769        3.7950722230
 C         -4.9645519092       -1.3910649033        4.7620368489
 C         -3.5865661441       -1.4266854348        4.5706736261
 C         -3.0079700143       -0.9371982528        3.4146231891
 C         -3.8433491964       -0.3964324756        2.4518307266
 C         -2.1468552061       -0.6247383080       -0.6494655794
 N         -3.2311380948       -1.2623542470       -1.2436733332
 C         -4.1011919444       -2.1194724599       -0.5899503299
 C         -3.9354229797       -2.7743559263        0.6189237670
 C         -4.9636365386       -3.5892813199        1.0534899335
 C         -6.1133720025       -3.7718041191        0.2907136574
 C         -6.2517624009       -3.1700951290       -0.9454704389
 C         -5.2344946484       -2.3426451578       -1.3984221273
 C         -5.0294548730       -1.5905701234       -2.6064096825
 C         -5.7923541580       -1.3989380188       -3.7491838097
 C         -5.3045679115       -0.5690452957       -4.7398809110
 C         -4.0791468667        0.0744452259       -4.5952654860
 C         -3.3048462765       -0.0985694172       -3.4631732467
 C         -3.7810376067       -0.9454881772       -2.4767209893
 C         -0.8826736418       -0.6615512814       -1.2599433609
 C         -0.7042436476       -1.4602981115       -2.4132954769
 N         -0.5488984084       -2.1534101941       -3.3134686970
 C          0.2382990756       -0.0461373415       -0.6812086720
 N          1.4796299596       -0.1182686666       -1.3098208826
 C          1.7999095386        0.4682314476       -2.5278667492
 C          0.9682797386        0.9508557497       -3.5230940114
 C          1.5574149365        1.5244789883       -4.6351749802
 C          2.9404076130        1.6290552563       -4.7517005649
 C          3.7747791951        1.1680046593       -3.7522479250
 C          3.2031713713        0.5847059201       -2.6308572762
 C          3.7495891696        0.0417902294       -1.4216475370
 C          5.0234778488       -0.0755166824       -0.8861110657
 S          6.5134731160        0.4913260410       -1.5903048409
 C          7.4082716032       -0.0458240441       -0.1818151186
 C          8.7728403174        0.0865741438        0.0100362133
 C          9.3201083792       -0.3881531459        1.1867728338
 C          8.5161879581       -0.9825820560        2.1549534634
 C          7.1567049026       -1.1147516250        1.9602609913
 C          6.5817193187       -0.6486001110        0.7810206727
 C          5.2022040053       -0.6720026555        0.3729341794
 C          4.1083425475       -1.2054504250        1.0592856251
 C          2.8330605183       -1.0844130889        0.5541597995
 C          2.6615085409       -0.4049302581       -0.6472259742
 C          0.0915187093        0.6279053278        0.5454755557
 N          1.1710073105        1.2708328992        1.1467108369
 C          1.7391163450        0.9222023572        2.3643731865
 C          1.2643570348        0.0711496844        3.3475206141
 C          2.0608954343       -0.1425801336        4.4573765708
 C          3.3066980901        0.4646143696        4.5831737667
 C          3.7913613670        1.3017876620        3.5968559212
 C          3.0053597015        1.5354999236        2.4781154243
 C          3.2046693647        2.3011953611        1.2783915876
 C          4.2395959541        3.0979057219        0.8111149970
 C          4.0916393459        3.7215451614       -0.4131744877
 C          2.9164029020        3.5922276255       -1.1473559986
 C          1.8733907524        2.8020866170       -0.7013697084
 C          2.0484649997        2.1213828994        0.4916709841
 H         -4.0621035656        1.4386367800       -1.2427403006
 H         -6.3652774453        1.9035540906       -1.9661343382
 H         -8.2771800555        1.3027002344       -0.5570067028
 H         -7.9348446556        0.2606318421        1.6578932399
 H         -6.8723369064       -0.8567967354        3.9377761785
 H         -5.3793641820       -1.7819702945        5.6785661361
 H         -2.9553686891       -1.8472888516        5.3391776658
 H         -1.9387970929       -0.9840061289        3.2779656252
 H         -3.0369121175       -2.6622471378        1.2053488855
 H         -4.8690847850       -4.0955237414        2.0023596619
 H         -6.8975233791       -4.4115726823        0.6655642448
 H         -7.1287872937       -3.3414975963       -1.5502341393
 H         -6.7491847939       -1.8864142775       -3.8552220903
 H         -5.8808701309       -0.4090399672       -5.6382968440
 H         -3.7257931472        0.7246978213       -5.3815492424
 H         -2.3636426510        0.4190300577       -3.3621344713
 H         -0.1055605654        0.8860773766       -3.4481391379
 H          0.9289292561        1.8998934206       -5.4288596105
 H          3.3619541932        2.0824626935       -5.6357064557
 H          4.8469820664        1.2590327190       -3.8306559162
 H          9.3874808785        0.5511507740       -0.7452698452
 H         10.3818636096       -0.2938094272        1.3567423987
 H          8.9632489516       -1.3422023352        3.0695508385
 H          6.5340388446       -1.5716977571        2.7145495797
 H          4.2672595388       -1.7020384382        2.0032687070
 H          1.9897188744       -1.4987004437        1.0842293775
 H          0.3070128544       -0.4184845433        3.2618741771
 H          1.7093934384       -0.7982657501        5.2401127513
 H          3.9012342074        0.2707747055        5.4630528272
 H          4.7646827245        1.7593482789        3.6858356343
 H          5.1386903751        3.2265776018        1.3941456991
 H          4.8899536658        4.3352217688       -0.8014498153
 H          2.8155519434        4.1173971680       -2.0851666911
 H          0.9582632366        2.7246720283       -1.2681476150
  103
  -170.394064815500       8.418911081283752E-002 !
 N         -1.6009001336        2.5711740787        2.8767648405
 C         -1.4375637108        1.8325783190        2.0153520465
 C         -1.2338628018        0.9222211845        0.9518002107
 C         -2.3216038329        0.1774341944        0.4684423920
 N         -3.5854008834        0.3283416696        1.0329527645
 C         -4.3623388464        1.4764899954        0.9881091189
 C         -4.0226327055        2.7543656115        0.5762825040
 C         -5.0121995314        3.7198810230        0.5937508550
 C         -6.3099132613        3.4218459519        0.9986788694
 C         -6.6562264937        2.1435136278        1.3906616386
 C         -5.6789112388        1.1588631522        1.3847560989
 C         -5.6924569077       -0.2453016985        1.6928774935
 C         -6.6737171114       -1.1221258177        2.1323784168
 C         -6.3294180381       -2.4415744234        2.3560495509
 C         -5.0202382878       -2.8815620711        2.1845765164
 C         -4.0256347545       -2.0243075787        1.7531345528
 C         -4.3831716597       -0.7172760922        1.4679396245
 C         -2.1166917909       -0.7292492879       -0.5859099771
 N         -3.1731238642       -1.4871508722       -1.0832464345
 C         -3.2790236824       -2.8683029289       -1.0119249948
 C         -2.3340737046       -3.8053383461       -0.6282895506
 C         -2.7183900143       -5.1332198767       -0.6033071568
 C         -4.0119767554       -5.5206270146       -0.9400237391
 C         -4.9617574724       -4.5861804965       -1.3039332808
 C         -4.5981673745       -3.2477351799       -1.3390257819
 C         -5.3174236241       -2.0378295249       -1.6316064985
 C         -6.6231994376       -1.7668200180       -2.0141220013
 C         -6.9868973027       -0.4529173728       -2.2396460376
 C         -6.0601060276        0.5790216307       -2.1246796672
 C         -4.7526329408        0.3315795501       -1.7508952496
 C         -4.4029916429       -0.9775477771       -1.4655030689
 C         -0.8304912495       -0.8636345838       -1.1325093125
 C         -0.6225448926       -1.7716057648       -2.1973453885
 N         -0.4531446947       -2.5082816201       -3.0594683681
 C          0.2567313731       -0.1205199472       -0.6479361459
 N          1.5213818914       -0.2783432895       -1.2139455612
 C          1.8820884417        0.1194028005       -2.4947113169
 C          1.0814840482        0.4560401696       -3.5726391690
 C          1.7088825296        0.8558537381       -4.7386077096
 C          3.0959279979        0.9321022647       -4.8288132610
 C          3.8976683211        0.6187776956       -3.7489019821
 C          3.2887303814        0.2119977473       -2.5704982579
 C          3.7936385834       -0.1435597789       -1.2766744207
 C          5.0500175302       -0.1892168299       -0.6909222087
 S          6.5674374618        0.2455562568       -1.4295374596
 C          7.4154181264       -0.0830514748        0.0690937520
 C          8.7767076973        0.0580111902        0.2774246741
 C          9.2846089623       -0.2396910480        1.5276396067
 C          8.4452094987       -0.6683686613        2.5515576054
 C          7.0890397455       -0.8091207851        2.3407619971
 C          6.5533443018       -0.5199479224        1.0885993319
 C          5.1848588080       -0.5876796271        0.6492310438
 C          4.0643747029       -0.9948444053        1.3778539998
 C          2.8057317199       -0.9417478139        0.8219239849
 C          2.6785593497       -0.4593399002       -0.4763004767
 C          0.0542974303        0.7828669371        0.4107689066
 N          1.1152165253        1.5225895905        0.9311682727
 C          1.6558870425        1.3570071429        2.1997013681
 C          1.1511585849        0.6662828213        3.2884518919
 C          1.9254729863        0.6148028009        4.4331468072
 C          3.1759792260        1.2226879544        4.4917426282
 C          3.6892903245        1.8983722324        3.4017122867
 C          2.9269807921        1.9689270390        2.2450044334
 C          3.1600848037        2.5394304050        0.9466649312
 C          4.2142716034        3.2443214110        0.3844515734
 C          4.1002771877        3.6694876133       -0.9255111022
 C          2.9405069800        3.4353945524       -1.6582563777
 C          1.8786964501        2.7335102356       -1.1185783433
 C          2.0187892448        2.2495701140        0.1711124681
 H         -3.0235725817        3.0008224111        0.2499492179
 H         -4.7715702618        4.7257829618        0.2840227611
 H         -7.0542824401        4.2034243635        0.9990017639
 H         -7.6657729689        1.9091552827        1.6910636940
 H         -7.6822772257       -0.7766979229        2.2987917785
 H         -7.0804630497       -3.1419531901        2.6881258417
 H         -4.7735185770       -3.9116987767        2.3928048050
 H         -3.0088061039       -2.3693324315        1.6470683898
 H         -1.3293322601       -3.5218014948       -0.3536640648
 H         -1.9987287288       -5.8840698300       -0.3132979693
 H         -4.2731156795       -6.5673372116       -0.9090293510
 H         -5.9687092107       -4.8852508132       -1.5508526517
 H         -7.3356115860       -2.5679489647       -2.1360986046
 H         -8.0004456848       -0.2200382775       -2.5284603071
 H         -6.3652691903        1.5935469268       -2.3319966428
 H         -4.0360857693        1.1358608765       -1.6885090906
 H          0.0044811880        0.4118451191       -3.5178518137
 H          1.1071510845        1.1164029100       -5.5963300229
 H          3.5467043699        1.2477794523       -5.7572474049
 H          4.9724909290        0.6917529653       -3.8084233889
 H          9.4190805737        0.3929563048       -0.5220070579
 H         10.3432838546       -0.1370741241        1.7109313430
 H          8.8621145087       -0.8932007629        3.5217326969
 H          6.4392235065       -1.1395228528        3.1371154991
 H          4.1891150250       -1.3386423634        2.3923155286
 H          1.9416308103       -1.2574737237        1.3856561305
 H          0.1891138598        0.1778362324        3.2571839842
 H          1.5515199469        0.0872519026        5.2978484331
 H          3.7514840479        1.1576778830        5.4026636157
 H          4.6661121173        2.3554143625        3.4408751308
 H          5.1022893851        3.4543994507        0.9606423584
 H          4.9143268647        4.2075314201       -1.3864552770
 H          2.8678244436        3.8043109911       -2.6701262917
 H          0.9775734774        2.5696988516       -1.6897094078
