  47
        -71.41545414
 C         -1.1496457799       -2.7035973011        1.1322576957
 C         -0.5152304937       -1.9332648588       -0.0552662453
 C         -0.9426141691       -2.4930624110       -1.4313344601
 C          0.9874106359       -2.1486744576        0.0135961803
 C          1.4796374868       -3.4466362236        0.0409168079
 C          2.8363230364       -3.7116382580        0.0654691873
 C          3.7329133932       -2.6579400923        0.0596649704
 C          3.2688139181       -1.3593699063        0.0362849610
 C          1.8972811242       -1.0923679811        0.0154136113
 N          1.4397312028        0.2139320150       -0.0055086833
 C          2.4013677975        1.2645495107       -0.0098736679
 C          2.8136360336        1.8199026127       -1.2143995599
 C          3.7584517814        2.8307231399       -1.2179701110
 C          4.2943429964        3.2858212485       -0.0247716918
 C          3.8847026870        2.7301887508        1.1760702497
 C          2.9392440669        1.7202066165        1.1873308819
 C          0.0908783548        0.5200647546        0.0153379325
 C         -0.2598986690        1.8907058541        0.0569026246
 C         -1.5595976177        2.2825920158        0.0683834227
 C         -2.5933100791        1.3275598921        0.0427864177
 C         -3.9363796618        1.7512790848        0.0461264563
 C         -4.9360575557        0.8261252280        0.0210399939
 F         -6.2296240958        1.2235003819        0.0225583232
 C         -4.6533806889       -0.5422936536       -0.0045167050
 C         -3.3533151607       -0.9638748802       -0.0065766699
 C         -2.2617711671       -0.0580171066        0.0135547800
 C         -0.8932021932       -0.4586096930        0.0024483358
 H         -1.7932001750       -2.0576404342        1.7227563593
 H         -0.3699837933       -3.0720325921        1.7959841023
 H         -1.7289973166       -3.5591664315        0.7928259251
 H         -0.7977979229       -3.5697585171       -1.4690947475
 H         -1.9775706556       -2.2697811408       -1.6669943007
 H         -0.3222488471       -2.0421796588       -2.2047381561
 H          0.7863196712       -4.2742168874        0.0457633102
 H          3.1888604594       -4.7315346234        0.0854894260
 H          4.7964421330       -2.8441774039        0.0736395092
 H          3.9731729053       -0.5417832850        0.0312973486
 H          2.3893080728        1.4553768761       -2.1382519329
 H          4.0770754665        3.2634643397       -2.1543171543
 H          5.0312194254        4.0748529137       -0.0305636929
 H          4.3015402477        3.0848053956        2.1069105094
 H          2.6120421044        1.2781970074        2.1168571140
 H          0.5242356361        2.6312097767        0.0794353324
 H         -1.8145366576        3.3314976402        0.0966473136
 H         -4.1642089237        2.8057524253        0.0683980042
 H         -5.4690874713       -1.2481233175       -0.0229906090
 H         -3.1813571059       -2.0242281822       -0.0217812924
  47
        -71.41438794
 C         -1.2839299950       -2.8343384020        0.8208715331
 C         -0.4878286341       -1.9289660866       -0.1527524110
 C         -0.7075176868       -2.3043478567       -1.6360493250
 C          0.9935846047       -2.1702779484        0.0902749859
 C          1.4656130100       -3.4760151817        0.1066248702
 C          2.8124444757       -3.7632629100        0.2273431672
 C          3.7208651692       -2.7234466344        0.3110748481
 C          3.2767077215       -1.4176049914        0.2975150787
 C          1.9136214077       -1.1273655333        0.2049031060
 N          1.4637399574        0.1846431619        0.2233049820
 C          2.3806895725        1.2500496109        0.0213049524
 C          2.3738350682        1.9174626193       -1.1988530036
 C          3.2537354955        2.9595048522       -1.4236858705
 C          4.1491357517        3.3370233521       -0.4365187984
 C          4.1560503748        2.6752756667        0.7799682394
 C          3.2718615773        1.6366908094        1.0152628669
 C          0.1103146596        0.4848156844        0.2528014193
 C         -0.2381767610        1.8239501341        0.5509769683
 C         -1.5356415541        2.2218664920        0.5721000029
 C         -2.5647813993        1.3094622684        0.2688191575
 C         -3.9009807859        1.7515045994        0.2255467378
 C         -4.8927442891        0.8728019963       -0.0923535874
 F         -6.1783685368        1.2908041262       -0.1452963501
 C         -4.6095985897       -0.4663353485       -0.3743084432
 C         -3.3179611842       -0.9099474359       -0.3164530724
 C         -2.2360666338       -0.0521205538        0.0072908065
 C         -0.8730219967       -0.4702389534        0.0479203314
 H         -0.6197139396       -3.2328838169        1.5848648039
 H         -1.7423780728       -3.6729978591        0.3018920894
 H         -2.0608338370       -2.2779838636        1.3361363305
 H         -0.5100987872       -3.3621038260       -1.7929125563
 H         -1.7114659350       -2.0786103638       -1.9792886206
 H         -0.0110041294       -1.7372458731       -2.2523087578
 H          0.7653959786       -4.2921696092        0.0120300812
 H          3.1490584388       -4.7886630505        0.2394214381
 H          4.7789464170       -2.9259244426        0.3853237034
 H          3.9944981171       -0.6140956775        0.3474650254
 H          1.6701690616        1.6152537975       -1.9609162501
 H          3.2430144530        3.4745528644       -2.3726722714
 H          4.8382928875        4.1487418460       -0.6143247503
 H          4.8487758697        2.9732213223        1.5530339177
 H          3.2613749027        1.1283850889        1.9683229543
 H          0.5473162899        2.5276842310        0.7793651125
 H         -1.7926073584        3.2426072894        0.8125782355
 H         -4.1292170444        2.7853292539        0.4339735963
 H         -5.4181578118       -1.1327818799       -0.6317100050
 H         -3.1436077405       -1.9476496204       -0.5360132828
