121
 energy: -183.547911573051 gnorm: 0.000028054697 xtb: 6.7.1 (edcfbbe)
C           -8.21724166377922       -3.58656910831343       -0.71122092679312
C           -6.95211903574912       -4.37833008891713       -0.33272983478453
C           -7.31777695609514       -5.83061331110931        0.02443292453057
C           -6.01641394825450       -4.38946702381672       -1.52569174923838
C           -6.44956498983047       -4.93626020315073       -2.72621315695558
C           -5.65669098821343       -4.94450557162083       -3.85826266705590
C           -4.39913595119256       -4.37143927830812       -3.80529094763477
C           -3.94341838761034       -3.82345749875867       -2.62501789574152
C           -4.72911899881214       -3.84665200380580       -1.46872985179132
N           -4.23667003169992       -3.29788926737602       -0.29160894423354
C           -2.89954691138910       -2.83331495857024       -0.26033454129408
C           -1.84415896998991       -3.74579396209939       -0.33360675299398
C           -0.55150178260516       -3.28503721533051       -0.29802269601827
C           -0.27924869573225       -1.91785256793085       -0.18300286232681
C           -1.33419780054316       -0.98632753315468       -0.10359531624005
C           -2.64111581684836       -1.47767522618100       -0.15265982451381
C           -1.04013724623256        0.43509553042446        0.01823836632727
C           -2.04542324092266        1.40125124447572        0.10714957908413
C           -1.74513269131388        2.74833819984192        0.21370923742453
N           -2.78856159456160        3.70249791156371        0.28694738687000
C           -3.55639823660108        3.95981172880784       -0.84202710335366
C           -3.30379199464101        3.26739469958127       -2.03018872649893
C           -4.05915232200630        3.49446507127052       -3.16116753034298
C           -5.07816826708547        4.42881366236647       -3.13306967861836
C           -5.30878924787764        5.13862145191639       -1.96987598770034
C           -4.56348690529991        4.93030571028284       -0.81700001068872
C           -4.84439579674088        5.77662467785306        0.40963284188800
C           -6.30645839829481        5.55896747827475        0.84044234827682
C           -4.60865219019140        7.25431775884071        0.04723401259975
C           -3.94061963052717        5.40826133580286        1.56989212091783
C           -4.07641935767086        6.07791578595205        2.77861397184032
C           -3.30692443891708        5.76398575573857        3.88294726006517
C           -2.38620428973119        4.73591807367256        3.79340100781617
C           -2.22915817319006        4.05645382179051        2.60401134183703
C           -2.97988539591701        4.39688752053270        1.47465554587814
C           -0.41371455336534        3.17053559193738        0.24532463351638
C            0.59092884078645        2.23803898772471        0.17070930649185
C            0.29850410424128        0.87492357959082        0.05664074739209
C            1.38199591170343       -0.07636857726402       -0.02063065279009
N            2.62544051073876        0.36372835671527        0.02888866521098
C            3.61398373933573       -0.53656408853119       -0.05010569153780
C            4.95668423134210       -0.10927437043683       -0.00383135993761
C            5.97783497530221       -1.01787234433110       -0.08913745727923
N            7.32943265646372       -0.61100571830596       -0.03822108061341
C            8.04520926432086       -0.55157508357706       -1.22777860113027
C            7.36807684157820       -0.68317656123123       -2.44234259818278
C            8.04964306501384       -0.63905637423376       -3.64033247812093
C            9.42002520089099       -0.45535539608223       -3.64372018040192
C           10.08756134717419       -0.30719479081756       -2.44208773524469
C            9.42650911868239       -0.34604544035220       -1.22220110300362
C           10.21164299974529       -0.18223613713689        0.06454314011560
C           11.20541934012845       -1.35270327735339        0.17702155064496
C           10.96324101452186        1.16022597426716        0.01943260490509
C            9.31289252004851       -0.20090295410448        1.28638809848156
C            9.86813573805124       -0.02464508663859        2.54650995779351
C            9.10398445666949       -0.06056493338667        3.69793545275114
C            7.74359355934822       -0.28723030525162        3.60075938572421
C            7.16569266906138       -0.46848096016476        2.36170041245157
C            7.93578456237837       -0.42129684202920        1.19768560590495
C            5.67306975676048       -2.39782944636238       -0.22324676156977
Br           7.11889968833208       -3.62685464155493       -0.30533526539937
C            4.38725552519280       -2.85147993208250       -0.27287621327114
C            3.32524791250502       -1.92713392639819       -0.18743942426370
N            2.06033368248369       -2.36541649581829       -0.22926999376927
C            1.09326429664510       -1.47102682618042       -0.14561707403295
C           -5.00323480155857       -3.24194798518244        0.86571919203621
C           -4.45383963869204       -2.72189296076334        2.04159502094260
C           -5.19656969588064       -2.64355738794673        3.20066800946695
C           -6.50369711353950       -3.09462996209272        3.21322987955543
C           -7.03910410038342       -3.63922168254719        2.06134899697500
C           -6.31377491988188       -3.73069370113565        0.88088253108211
H           -7.95016254417449       -2.56271406112438       -0.96658253719152
H           -8.71454412852291       -4.03432939032556       -1.56700420933468
H           -8.92161844865737       -3.56113130901182        0.11550864559107
H           -8.00588972504178       -5.86290191100748        0.86455103774868
H           -6.41946560353068       -6.38229632912805        0.29556166429040
H           -7.78617816749383       -6.33117638590807       -0.81843795293243
H           -7.43655571448380       -5.36928483172064       -2.78582025447333
H           -6.02296425141235       -5.38257572668331       -4.77403056430530
H           -3.77064166831827       -4.34556102576165       -4.68289308601659
H           -2.96697896063804       -3.36470734476386       -2.59951336667419
H           -2.05884292080217       -4.80035686001559       -0.41779283223622
H            0.28558946733130       -3.96278375507885       -0.34982907975883
H           -3.48678255108482       -0.81024409900101       -0.10515857037004
H           -3.08666004942113        1.12112871823011        0.09286434305256
H           -2.49955953754621        2.54928070223371       -2.07207071334037
H           -3.84541955698172        2.94245554639615       -4.06424566208374
H           -5.67932777183554        4.61350715210286       -4.01009133821442
H           -6.09289612153945        5.88045296031094       -1.96678210803933
H           -6.55077311769023        6.16612088869872        1.70751012443216
H           -6.46423267960012        4.51331221430806        1.09832650553259
H           -6.99112585073051        5.82151868608103        0.03886190640521
H           -3.57477231111033        7.39926717468678       -0.26088545305193
H           -4.80600519686612        7.89885802076273        0.89932047145049
H           -5.25554630070500        7.56217000010646       -0.76954009530764
H           -4.80511477335944        6.86936453924933        2.86705609411425
H           -3.43490942172904        6.30839900648027        4.80594716395809
H           -1.79025431408283        4.45704082145609        4.64951655920354
H           -1.51914499808246        3.24558022385177        2.55024383159460
H           -0.19259822776402        4.22382539046583        0.32911051845902
H            1.62858487857782        2.53068552628465        0.19047417761137
H            5.16638554998152        0.94384704344417        0.10156351803486
H            6.29628994434621       -0.81909335060203       -2.44716686583137
H            7.50740163856671       -0.74830850455542       -4.56760792282727
H            9.96632496961698       -0.42500309919547       -4.57398030167145
H           11.15714360520946       -0.16361360824194       -2.46145858699368
H           11.88201790740958       -1.36776295972238       -0.67311793224266
H           10.66249328465469       -2.29580436678156        0.20063342918619
H           11.79657762172092       -1.27332778041300        1.08531712417189
H           11.55632856247794        1.30501668335862        0.91782800119728
H           11.63151325698237        1.20379302024109       -0.83573551932582
H           10.25169424048537        1.98032654019577       -0.05851798720756
H           10.93099092442648        0.13892138952737        2.63918137441142
H            9.56913432328943        0.07986134361163        4.66162957998019
H            7.12851604221388       -0.32776935311247        4.48728008890041
H            6.10377569885809       -0.65269790179754        2.29640655913829
H            4.15644581129243       -3.90057876397580       -0.36815422842196
H           -3.42928610677596       -2.38357142448471        2.05117035044762
H           -4.74886848792753       -2.23349189906447        4.09361705761675
H           -7.09718688187734       -3.03566304849877        4.11265893754015
H           -8.05357169771896       -4.00694640360236        2.08947664237584
