121
 energy: -183.548256805864 gnorm: 0.000043910600 xtb: 6.7.1 (edcfbbe)
C           -8.56039991049630       -4.05633426111120       -0.61152315059300
C           -7.24186487270722       -4.66313796179355       -0.09759656700522
C           -7.48645789365577       -6.07640526574493        0.46210747158948
C           -6.27195516565222       -4.75783350411628       -1.25873273984900
C           -6.62145965450134       -5.50099263247866       -2.37844974711543
C           -5.80051396455568       -5.59044191182939       -3.48652880384571
C           -4.60291596819979       -4.89875286669501       -3.49562519926560
C           -4.22966083084559       -4.15744327272584       -2.39474174208898
C           -5.03807418165460       -4.10026188479327       -1.25522868181755
N           -4.62464917505066       -3.36018589992660       -0.15392281290757
C           -3.33325277087291       -2.78356775412003       -0.16146306159816
C           -2.20090333842102       -3.60262563374080       -0.15064271307966
C           -0.95365268664951       -3.02923005344151       -0.13962104507432
C           -0.80143715515399       -1.63867618412113       -0.12505939940515
C           -1.93454213093498       -0.80061224226713       -0.13456316489344
C           -3.19260417465219       -1.40614063551617       -0.16515451857895
C           -1.76900920671407        0.64531647626600       -0.08623513607104
C           -2.85743405299979        1.52029594328323       -0.08684475950205
C           -2.68500092272363        2.89054513651151        0.01276192262906
N           -3.81310715335779        3.74285001594628        0.04109660503084
C           -4.01178629397716        4.63162915571287       -1.00900297163485
C           -3.17010961175831        4.58623578421036       -2.12476460977139
C           -3.32853884451899        5.46833073879439       -3.17242953172913
C           -4.34168821784927        6.40893232906886       -3.13391852696862
C           -5.20250106214596        6.42718151418583       -2.05301967300229
C           -5.06831785759729        5.54719171713081       -0.98723771643536
C           -6.07933581978081        5.58867849327373        0.14143521554764
C           -7.47771172139060        5.32608936388444       -0.44728348265533
C           -6.03034709465323        6.97817536875009        0.80268931862719
C           -5.78781160658568        4.54290181552316        1.19997140381352
C           -6.63023988276785        4.44051589876871        2.29922617107506
C           -6.40053195959988        3.53915077233718        3.32104130034764
C           -5.28098998330689        2.72964202247040        3.26432805771234
C           -4.42701491648001        2.81227606344992        2.18510628264054
C           -4.67886575250589        3.69316293769334        1.12848939937110
C           -1.39804884282828        3.42914532462288        0.09661298886235
C           -0.31217212611646        2.58949435136031        0.07435326949960
C           -0.47667910797937        1.20304049835507       -0.01350908467981
C            0.68747171828467        0.34919512117282       -0.02389645017286
N            1.88622849452928        0.89986599743803        0.02373404162330
C            2.95146738324906        0.08750318691825        0.01219547138143
C            4.24970799970699        0.63285559698666        0.07454276464726
C            5.34915891069771       -0.18453755301335        0.06020802416873
N            6.65732363367014        0.34277132470096        0.12054918143690
C            7.25072595828382        0.83747550805880       -1.03488465485182
C            6.50008057764498        0.95165790240058       -2.20697675344482
C            7.06721661243510        1.43568048975367       -3.36719177762297
C            8.39857729594833        1.80831836179411       -3.37800785006332
C            9.14582069094053        1.68140911777597       -2.22205338327610
C            8.60041883392496        1.20049991816305       -1.03935666637763
C            9.48533914831069        1.05140745368822        0.18364322898815
C           10.58227100929664        0.01955824044503       -0.13606730286350
C           10.11154579636389        2.41764934253118        0.51620390158046
C            8.70910799014230        0.56413893719895        1.39127903668729
C            9.35333956168265        0.42112385506337        2.61245458300707
C            8.69162572865211       -0.01676942386243        3.74455225351368
C            7.34273242594681       -0.31128829720028        3.67037015012169
C            6.67885435283175       -0.18042881143800        2.46886809562705
C            7.35308667591424        0.23845163451962        1.31933508262304
C            5.16931427255432       -1.59013514185554       -0.02469198793189
Br           6.71818938651357       -2.68813883367888       -0.09377266011918
C            3.92962817963019       -2.15728294298711       -0.07979130358533
C            2.78869218493988       -1.32827351677214       -0.05700393978989
N            1.56858349770250       -1.87853646439741       -0.10543091891702
C            0.52504666998193       -1.07031836701888       -0.08666745144627
C           -5.43433149446181       -3.20357772418969        0.96587820726057
C           -4.97067047212083       -2.48206655500568        2.07050388658259
C           -5.76176408206230       -2.29579251753901        3.18418538874274
C           -7.03156798398115       -2.84134116762056        3.22682137277534
C           -7.47760273875581       -3.58981057465790        2.15432498649485
C           -6.70272250587856       -3.79112584495817        1.01964320438534
H           -8.37901193513647       -3.05804541307722       -1.00562574884985
H           -8.98602595132406       -4.66522126686732       -1.40406640406709
H           -9.29207541882455       -3.98149589696660        0.18794528607725
H           -8.19378224899467       -6.05071354653909        1.28640941434838
H           -6.55091651410765       -6.49724851261275        0.82609980486081
H           -7.88243701106399       -6.73450483600500       -0.30638357905852
H           -7.56388596436939       -6.02714188272373       -2.39209898698050
H           -6.10052937458478       -6.18164372935190       -4.33807240827239
H           -3.95744784112978       -4.93067888626362       -4.36058900439366
H           -3.30131573245140       -3.60806706309817       -2.42095716249266
H           -2.32108771324264       -4.67542502250789       -0.14763743388234
H           -0.06085771519241       -3.63381407678316       -0.12653511572713
H           -4.09284406095741       -0.81269306817079       -0.18003761402669
H           -3.86700596627722        1.14804534141005       -0.15739475371792
H           -2.38704845234395        3.84565170912914       -2.17550276478890
H           -2.66086484176673        5.41538542887805       -4.01932115162308
H           -4.47111793699871        7.11130503103986       -3.94297559567289
H           -6.00383070549558        7.15035272606021       -2.04521514818164
H           -8.23844435288874        5.35748553264162        0.32757836677102
H           -7.50355470480252        4.34322915529572       -0.91431777775832
H           -7.72905086015132        6.06899191514841       -1.19893184071000
H           -6.24154871059355        7.75997259693810        0.07837248171906
H           -5.04060813576859        7.15468056868858        1.21993501591224
H           -6.75844009827154        7.05207481335829        1.60570458097895
H           -7.49287598651446        5.08579192855162        2.36676068452519
H           -7.07975348745767        3.48152547399834        4.15764961331139
H           -5.06517910125605        2.03459161856750        4.06187662902783
H           -3.54577658471042        2.19028152441769        2.16819946785139
H           -1.27380943647397        4.49845104977492        0.17757851316690
H            0.69319937602039        2.97443566988689        0.13644963338235
H            4.36350214256962        1.70425445395932        0.13293348918249
H            5.46233322087315        0.65403900834337       -2.21196820843421
H            6.46684382480798        1.51595934349576       -4.26104633032026
H            8.85521164593387        2.18640096547191       -4.27985772066605
H           10.18818037969284        1.96011117192547       -2.25004955394977
H           10.12784745472031       -0.94364841933421       -0.36071698823419
H           11.25192296605590       -0.10646965486259        0.71038723813811
H           11.16933569251038        0.33184836586483       -0.99553140807660
H           10.76659203954578        2.34598879278463        1.37963576410883
H           10.69611998906496        2.79236171491658       -0.31902337230381
H            9.32785045051405        3.13964557419581        0.73864289211153
H           10.40533140404576        0.65065558931104        2.68726177577774
H            9.22497328757987       -0.12244123025171        4.67681250532092
H            6.80353045687813       -0.64288505991635        4.54506049261867
H            5.62278101927716       -0.40319605497150        2.42063853261063
H            3.79442372874656       -3.22501681090078       -0.14790285208407
H           -3.97396735012504       -2.06942529699453        2.06342770388615
H           -5.37989185243750       -1.72794605758153        4.01936887747060
H           -7.66294369276484       -2.69950783353249        4.09044055311702
H           -8.46030322002539       -4.03289757443786        2.20958137908707
