  121
       -183.54807240
 C         -8.5819587183       -4.0756315532       -0.5174497529
 C         -7.2439542960       -4.6763882664       -0.0490037473
 C         -7.4608608086       -6.0962464696        0.5055747342
 C         -6.3082075852       -4.7549031523       -1.2390622024
 C         -6.6882894130       -5.4852981817       -2.3571330198
 C         -5.8980474171       -5.5615523910       -3.4883447661
 C         -4.7005527190       -4.8704185767       -3.5220664004
 C         -4.2969579769       -4.1419598707       -2.4232743560
 C         -5.0746314329       -4.0971169295       -1.2621112063
 N         -4.6313592171       -3.3688307241       -0.1649423781
 C         -3.3393269278       -2.7942070725       -0.1986264478
 C         -2.2080323840       -3.6144777592       -0.2134666922
 C         -0.9600597157       -3.0422783617       -0.2128582753
 C         -0.8059475385       -1.6520673170       -0.1862722641
 C         -1.9382823381       -0.8128354336       -0.1809465812
 C         -3.1972082865       -1.4169634799       -0.1975664470
 C         -1.7715020553        0.6328283303       -0.1306160028
 C         -2.8591387948        1.5089309959       -0.1278259629
 C         -2.6845011077        2.8788385857       -0.0288988360
 N         -3.8105300397        3.7339440806        0.0049836799
 C         -4.0117045373        4.6210898318       -1.0457069325
 C         -3.1869123322        4.5579116258       -2.1731662898
 C         -3.3480663933        5.4370643198       -3.2228369498
 C         -4.3469650436        6.3924456687       -3.1741569130
 C         -5.1911565407        6.4289872678       -2.0806748467
 C         -5.0541704094        5.5521435850       -1.0126392287
 C         -6.0443572194        5.6163040958        0.1332818397
 C         -7.4586072470        5.3847612084       -0.4296791248
 C         -5.9522541420        7.0049758248        0.7915619380
 C         -5.7573078065        4.5653052575        1.1879736601
 C         -6.5868310100        4.4774466686        2.2981681497
 C         -6.3605757310        3.5707155510        3.3160588915
 C         -5.2573348439        2.7404691829        3.2438718179
 C         -4.4152690294        2.8095052617        2.1543847638
 C         -4.6638716289        3.6968697051        1.1025133638
 C         -1.3967178524        3.4161795560        0.0491231082
 C         -0.3118723715        2.5753524386        0.0247071322
 C         -0.4785175823        1.1890169356       -0.0610137591
 C          0.6845112616        0.3336414602       -0.0707724341
 N          1.8832505170        0.8829379207       -0.0112033254
 C          2.9477979338        0.0697051496       -0.0183401634
 C          4.2454304572        0.6138713537        0.0609334950
 C          5.3447073821       -0.2039033345        0.0534507697
 N          6.6518502030        0.3237311895        0.1282466449
 C          7.2482991623        0.8399350761       -1.0161129751
 C          6.5078506855        0.9534325986       -2.1947830734
 C          7.0781915591        1.4588592762       -3.3442042439
 C          8.4030840705        1.8538051647       -3.3377540944
 C          9.1409606180        1.7263037600       -2.1759028941
 C          8.5920490196        1.2239763700       -1.0037863359
 C          9.4675613290        1.0755607091        0.2259837741
 C         10.5837786983        0.0647848430       -0.0940862644
 C         10.0689071952        2.4476733431        0.5792226217
 C          8.6877369764        0.5628906646        1.4207225129
 C          9.3229267413        0.4164519638        2.6462001005
 C          8.6577713759       -0.0434600985        3.7674706137
 C          7.3142235189       -0.3570327162        3.6777157150
 C          6.6593869548       -0.2229729785        2.4716143630
 C          7.3375231995        0.2177161717        1.3326323754
 C          5.1648117595       -1.6088056845       -0.0418377040
 Br         6.7139087827       -2.7072665178       -0.1002550584
 C          3.9253721893       -2.1747907009       -0.1142210437
 C          2.7844863033       -1.3454407261       -0.0983368284
 N          1.5643165290       -1.8942686070       -0.1606675519
 C          0.5212003873       -1.0853306843       -0.1433994087
 C         -5.4119981566       -3.2200816440        0.9763873700
 C         -4.9212254324       -2.5043018292        2.0730031257
 C         -5.6831708782       -2.3270212213        3.2082494097
 C         -6.9499658840       -2.8763183042        3.2810012229
 C         -7.4224161193       -3.6187461273        2.2156452715
 C         -6.6775825069       -3.8102726655        1.0593454822
 H         -8.4202932245       -3.0726157336       -0.9079973610
 H         -9.0270074002       -4.6810029530       -1.3018888711
 H         -9.2897195939       -4.0135298178        0.3042514993
 H         -8.1429962906       -6.0827950436        1.3511481495
 H         -6.5115740578       -6.5128170836        0.8374793702
 H         -7.8747714134       -6.7507472841       -0.2565532955
 H         -7.6304932779       -6.0119929912       -2.3509257605
 H         -6.2215851935       -6.1426244743       -4.3382590591
 H         -4.0788848264       -4.8929361813       -4.4045788483
 H         -3.3689888244       -3.5929933531       -2.4675065769
 H         -2.3292001050       -4.6871565905       -0.2187185048
 H         -0.0678729674       -3.6479075426       -0.2153468991
 H         -4.0970157450       -0.8226944083       -0.1938311822
 H         -3.8692957920        1.1379803172       -0.1963255549
 H         -2.4149541671        3.8061339569       -2.2307471133
 H         -2.6936007253        5.3706225269       -4.0790513150
 H         -4.4780329418        7.0927236681       -3.9847708115
 H         -5.9810654099        7.1644402229       -2.0643297776
 H         -8.2043082964        5.4353031070        0.3585486445
 H         -7.5152157966        4.4017383951       -0.8934874136
 H         -7.7065008586        6.1315608375       -1.1783710226
 H         -6.1571700849        7.7903189671        0.0693224042
 H         -4.9520010994        7.1591906305        1.1920651339
 H         -6.6649475530        7.0964549396        1.6064609665
 H         -7.4359542121        5.1389122262        2.3778836131
 H         -7.0296898845        3.5246774046        4.1614120679
 H         -5.0446394125        2.0397914194        4.0373371643
 H         -3.5459765930        2.1714369717        2.1257398804
 H         -1.2712053974        4.4855556180        0.1272174095
 H          0.6941182985        2.9591728002        0.0831095674
 H          4.3589420155        1.6848702894        0.1266140223
 H          5.4754306043        0.6384623257       -2.2139277688
 H          6.4853406601        1.5381899086       -4.2430928305
 H          8.8621672210        2.2491981884       -4.2308620638
 H         10.1788798267        2.0217902965       -2.1906496231
 H         10.1468206761       -0.9028949191       -0.3335588821
 H         11.2470634677       -0.0599922709        0.7575631185
 H         11.1740904008        0.3956611178       -0.9442838679
 H         10.7173560462        2.3768507968        1.4476648876
 H         10.6548035164        2.8408600572       -0.2465371663
 H          9.2719716456        3.1547599026        0.8024641856
 H         10.3703572320        0.6621528223        2.7333417949
 H          9.1840886847       -0.1506545523        4.7035290378
 H          6.7722259486       -0.7057404855        4.5438922489
 H          5.6072651227       -0.4605549338        2.4116673748
 H          3.7906385134       -3.2420587959       -0.1900507578
 H         -3.9261835839       -2.0887875485        2.0426094475
 H         -5.2807331100       -1.7631910496        4.0364975639
 H         -7.5585227401       -2.7418971773        4.1619953628
 H         -8.4020023640       -4.0651863530        2.2941881634
