130
 energy: -171.938293631707 gnorm: 0.000205723080 xtb: 6.7.1 (edcfbbe)
C            4.83450981730451        2.31840352531245        4.46379027468169
C            4.23535813881612        2.57657550303973        3.11061125321583
C            3.80647650798421        3.85732431734713        2.79222467625607
C            3.27093263711239        4.15138925266268        1.54171915787527
C            2.81434968752359        5.55187455210513        1.24827841860350
C            3.14541614847209        3.13887873688853        0.59965920603418
C            2.49942678568751        3.47527467942118       -0.72561053394836
C            1.06119700842338        3.52493861573854       -0.57872387217542
C           -0.13130055232542        3.50547349537548       -0.40132533362975
C           -1.53206195867344        3.50822864930579       -0.23757641163488
C           -2.38157148937270        3.29277351078388       -1.32353614018937
C           -3.74849030076104        3.31356660862323       -1.16915182603127
C           -4.33366620302522        3.55660534653837        0.08283749456969
N           -5.69605561806038        3.59470160606619        0.23305406708732
C           -6.28756189855001        3.73795439026814        1.53731601718635
C           -6.56065930805172        3.58813360877594       -0.91984565334196
C           -3.47140669386480        3.76253930774300        1.17142418592110
C           -2.10516913828716        3.73415265858433        1.01448096350265
C            3.49538374499460        1.80643275601046        0.91856903702828
B            3.10253996780822        0.58882717262810        0.00493390633674
C            2.54032178711665       -0.72115218583899        0.63331593169533
C            3.05668276625653       -1.99637482196631        0.25481284441380
C            4.12911045774497       -2.08444205308318       -0.79090308443273
C            2.59780966305719       -3.16096550306708        0.85122030272348
C            3.10047631326697       -4.51865071636483        0.44602671685066
C            1.66377088092021       -3.08075424662073        1.87755958455089
C            1.13890952202357       -1.85945140490719        2.28745206277633
C            0.13808300953053       -1.83739533199169        3.40706683880790
C            1.55202095514044       -0.69776555840891        1.65260675616986
C            0.85317591568363        0.59325423315855        2.02278187770044
C           -0.50775636316762        0.54115716404268        1.53111175649971
C           -1.61767368764111        0.43709274326815        1.07550811342585
C           -2.91876103090611        0.32551631700502        0.54041516454104
C           -3.10357133128324        0.02282235099436       -0.80760391865110
C           -4.36833186262649       -0.07604882627991       -1.34331075346373
C           -5.51089267114940        0.12013617133776       -0.55674361452355
N           -6.78376362823296        0.10236977769637       -1.11328159751124
C           -6.95524723070297       -0.46283382849256       -2.43227187843330
C           -7.92428906159636        0.00505072960072       -0.23190867246299
C           -5.31542164773388        0.38973541154464        0.80324493456453
C           -4.04914900123519        0.49845255859843        1.33629332799761
C            3.31908414046614        0.68697551020613       -1.55134695374171
C            4.56215821285449        1.00165271593594       -2.14692857068736
C            5.70138487287589        1.53842689988906       -1.33184636518043
C            4.76166444005517        0.75629799737113       -3.49962165037808
C            6.08866381987746        1.03395321675074       -4.14305775801275
C            3.72542563742427        0.22910485655231       -4.26968855394154
C            2.46582041561316        0.00445470065171       -3.73284202651400
C            1.35626125337000       -0.50295833979597       -4.60872829448384
C            2.24908185883882        0.29674283490132       -2.39225493990352
C            0.84453772525213        0.26773436645394       -1.83446534865221
C            0.44437586652634       -1.05804367080924       -1.42765116799701
C            0.10015040036078       -2.16828048749451       -1.10748301460700
C           -0.31055945205818       -3.43183512959400       -0.64569484730866
C           -1.17527020327589       -3.52812042229010        0.44844790203833
C           -1.54854644634375       -4.75476024037455        0.94444164655589
C           -1.07640587836371       -5.94486999312159        0.36747407040784
N           -1.43087401861397       -7.17121014206742        0.87098895834922
C           -0.70511818464883       -8.36358406929639        0.51509581944256
C           -2.51625658442901       -7.31164752778049        1.80698823126771
C           -0.23168528747813       -5.83864604930304       -0.74881344592862
C            0.13892640092048       -4.60972992667017       -1.24422758900590
C            4.12166670915757        1.55954578243007        2.16921378322795
C            4.67962518658095        0.20553278721566        2.49434626944659
H            5.90417253652355        2.11970916387894        4.38432719057163
H            4.36770254768937        1.45598065752247        4.93731367798771
H            4.69928385566480        3.18420863480274        5.10840130973656
H            3.90672830028081        4.64810842514572        3.52255654461266
H            2.90046965846205        6.17113409843962        2.13837574442282
H            3.42014970419993        6.00429317363569        0.46145849370284
H            1.77491052709710        5.55850483359920        0.92029809278205
H            2.86219941334904        4.43588504519797       -1.10147827481142
H            2.74788101018411        2.70892363851737       -1.46347038402757
H           -1.95509376167989        3.10451976342303       -2.29846933194063
H           -4.36705801894290        3.12263208447546       -2.03069995646122
H           -5.85477631648011        3.01756705753230        2.23441213100273
H           -7.35708860694002        3.54659139043736        1.47417993031739
H           -6.14372103744309        4.74680080158514        1.94389091530402
H           -7.57517483112680        3.83484649098068       -0.61394146142262
H           -6.23912822709102        4.33444351660441       -1.65174357363141
H           -6.57436069309510        2.60498562382191       -1.40114951133126
H           -3.86948009001169        3.95896767089299        2.15362680676309
H           -1.46206727433418        3.89416738005890        1.86757204839604
H            4.72033376000047       -2.98918363943356       -0.67824718046373
H            4.79429616572938       -1.22788734337069       -0.73177504480629
H            3.68618118152899       -2.08704991751161       -1.78782895980787
H            3.03950824462362       -4.65102835918834       -0.63219592687042
H            2.50280605930761       -5.29451681275365        0.92020537617923
H            4.13939525289080       -4.65762397680389        0.74949697296295
H            1.33139882094428       -3.98860204008274        2.36282532362449
H           -0.78269291140308       -1.34644685923287        3.09598535709069
H            0.53307740470489       -1.29290949904193        4.26647352205625
H           -0.09630706338137       -2.85117821562512        3.72470557976658
H            0.84892665796364        0.73804579843614        3.10752684294816
H            1.35155859488979        1.44951534283505        1.56941617226488
H           -2.23761219792024       -0.14593124825675       -1.42995317786602
H           -4.45662355739710       -0.31308452805229       -2.39101947122243
H           -6.63784498355764       -1.51184407785936       -2.48747253721779
H           -6.38576900273368        0.11223060910298       -3.16381034609818
H           -8.00550081263465       -0.40540776020124       -2.71219821868197
H           -7.90843244293287       -0.90476115895923        0.38184402387044
H           -7.96102501442114        0.87183693782623        0.42894149886532
H           -8.83627592922303        0.00312693406057       -0.82602948753851
H           -6.15802891822120        0.51613752525825        1.46354386916016
H           -3.92724598794336        0.71408802199190        2.38883122756156
H            5.94180319603777        2.55720169716838       -1.63862250411469
H            5.44643432559620        1.55558880306550       -0.27639684394753
H            6.59740245543238        0.93289097783269       -1.47017965364041
H            6.86786866824963        0.40393687716591       -3.71244601545272
H            6.38297282162510        2.07240102229474       -3.99339280194355
H            6.04354672174245        0.83769340312234       -5.21185123819650
H            3.89758770551015        0.02881864085661       -5.31821834876164
H            0.81948045027686       -1.31448675934209       -4.11921031308492
H            0.64105279922340        0.29199477329144       -4.82751570411927
H            1.75542238464643       -0.86523739584534       -5.55372450524033
H            0.78188594603210        0.92165095807860       -0.95992125657149
H            0.14128432452999        0.64098312292954       -2.58653851912418
H           -1.53607126943436       -2.62061873234421        0.90839091723108
H           -2.19366241071196       -4.78879509838062        1.80811901872614
H           -0.83014585308032       -9.10884197919983        1.29959758440443
H           -1.05920930365388       -8.79371212173015       -0.42988347637662
H            0.36034446176150       -8.14865720978203        0.42285727246816
H           -3.33754844368924       -6.64576246354317        1.53917550185161
H           -2.88864622528021       -8.33470383100994        1.77347998606584
H           -2.20579732581617       -7.08963370390559        2.83563847522908
H            0.12667583152236       -6.72744862133732       -1.24384987885350
H            0.78917578605510       -4.55118916694515       -2.10535551600780
H            4.87096034333547       -0.36047667078307        1.58783001491975
H            5.61079667337008        0.29533386149947        3.05167501190539
H            3.97814674507146       -0.36948446713186        3.10099364547458
