130
 energy: -171.938296230750 gnorm: 0.000094792397 xtb: 6.7.1 (edcfbbe)
C            4.35247158426985        3.45599922527639        4.24485499340566
C            3.73510056920624        3.50129990758444        2.87609170104902
C            3.10394543233037        4.66316513672217        2.45506657467727
C            2.54210392220292        4.76236694337259        1.18556701340070
C            1.86355074269193        6.03944906252496        0.77978603166536
C            2.59725435729859        3.67044173372765        0.32944588453531
C            1.92062035592527        3.78687954140594       -1.01793868062754
C            0.49295369166356        3.60286685229165       -0.87427096550772
C           -0.68128565349647        3.39465108331286       -0.69628837065792
C           -2.06434683639239        3.16917475634267       -0.53682671129743
C           -2.84187932101702        2.70769116298984       -1.59981807696014
C           -4.19446832711721        2.50399646379347       -1.45263676168824
C           -4.83778380350084        2.75779518611752       -0.23167531196086
N           -6.18892836610841        2.57171025441881       -0.09032326846382
C           -6.82241097363047        2.73357022606557        1.19186074415002
C           -7.01579049874090        2.30438256551810       -1.23988715746573
C           -4.04612313747626        3.21229334593398        0.83489289285088
C           -2.69273773382438        3.40815822604663        0.68586076827109
C            3.15887394218315        2.44455997239443        0.75546667568577
B            2.98292868671424        1.10851115268248       -0.05412288203561
C            2.63893837418808       -0.22134671286164        0.68105043812978
C            3.36361139367279       -1.41936977031911        0.40631680338372
C            4.44940481236988       -1.41195723397456       -0.62927702865157
C            3.09557235578752       -2.59270806169180        1.09485646157745
C            3.81956813152003       -3.87654899799138        0.79878500665626
C            2.14955182688850       -2.58623944891530        2.11324881201745
C            1.42666177946444       -1.43943503686874        2.42521459789181
C            0.42561599234417       -1.49308703854677        3.54352654137943
C            1.64895978318411       -0.28015193911981        1.69715563421366
C            0.74178114341150        0.90267030564987        1.96232882019005
C           -0.58663783543389        0.58304947765483        1.48307823007013
C           -1.65877074796536        0.25521517797929        1.04328272731084
C           -2.91615345603195       -0.12573963986903        0.52809830946093
C           -3.03173701841268       -0.58318434879870       -0.78360319486063
C           -4.25454539399827       -0.95116232654778       -1.29890405286358
C           -5.42178909569520       -0.88255253241550       -0.52710120326096
N           -6.66525670375772       -1.17826320074545       -1.07128796534820
C           -6.71901775361327       -1.90676468713601       -2.31845952412745
C           -7.78547679538849       -1.36824458486404       -0.17937713203330
C           -5.29052581271614       -0.45187749065819        0.79867880655021
C           -4.06777845032896       -0.07445525883671        1.31050300105113
C            3.19699315821070        1.11286307360608       -1.61388030052330
C            4.37654916550456        1.57987790815820       -2.23779797000773
C            5.40139297420099        2.36556940547047       -1.47449652113547
C            4.62876999722091        1.25918659980574       -3.56575340411311
C            5.89755298820738        1.70043212950882       -4.23471313260674
C            3.70343040228244        0.50373332117201       -4.28520614824436
C            2.49310621890658        0.11763619274961       -3.72720032194209
C            1.49314461021930       -0.63949852654430       -4.55342089848528
C            2.21611115469687        0.48081245273885       -2.41536745085858
C            0.82990773931725        0.26530272491276       -1.85279433242614
C            0.64789480196074       -1.06943319838539       -1.33449588850572
C            0.48221717726743       -2.18969503745191       -0.92085734845919
C            0.27169698602076       -3.45838708183723       -0.35096880683580
C           -0.58780306587545       -3.59783540566552        0.74260822747110
C           -0.77097118978116       -4.82134427602430        1.34213454195855
C           -0.10465102052797       -5.96560397215657        0.87426660757148
N           -0.27075243643059       -7.18581368867127        1.47984024680707
C            0.64173822134501       -8.27256387688453        1.23143715430086
C           -1.33280446805001       -7.41426243622679        2.42516911829998
C            0.73486000217711       -5.82124804025786       -0.24166106258070
C            0.91485438266826       -4.59587702062123       -0.84096350198777
C            3.80263312822574        2.40684913765432        2.02098758063350
C            4.57313997617536        1.19515441487333        2.45507026464386
H            5.44105557225274        3.42856601824631        4.18025677020789
H            4.02671976904347        2.57058128676444        4.78881288071954
H            4.07059779644328        4.33789191354424        4.81602497202619
H            3.06328034032317        5.51597080001972        3.11827078945706
H            1.83492736649898        6.73383714552115        1.61655933608432
H            2.39584724290721        6.52160728170240       -0.04177230097597
H            0.84148712583833        5.84710131698830        0.45356193017469
H            2.12012751375261        4.76261570730924       -1.46927091095693
H            2.30428714554217        3.01820152524875       -1.69269258089625
H           -2.36980748912684        2.50613119269948       -2.55077333520004
H           -4.75319211314305        2.12801528952435       -2.29394395617432
H           -6.28669367276870        2.16798924474283        1.95693572182183
H           -7.84181894145248        2.35547104889266        1.14375421772557
H           -6.86184597330515        3.78600663534588        1.49935598543574
H           -8.06372761890490        2.39718780238131       -0.96260345499958
H           -6.81458453013811        3.02263582070418       -2.03969671137796
H           -6.84842329551373        1.29290477101731       -1.62369276829345
H           -4.49167062596127        3.42748892155037        1.79246923803786
H           -2.10436490296153        3.75726589851586        1.52187759946026
H            5.18204146669823       -2.19228560269060       -0.44172038891071
H            4.96114187658000       -0.45405951241128       -0.64220936397317
H            4.02669098474409       -1.57104884787967       -1.62228148895232
H            3.79642517025472       -4.10060335367531       -0.26565582495509
H            3.35068731775852       -4.70088617818307        1.33227520076569
H            4.86287101198708       -3.81854946157519        1.11331656616743
H            1.96548664934026       -3.49499828796793        2.67043362854073
H           -0.56055482549657       -1.18704284232393        3.19812839082124
H            0.71811222543761       -0.82399586733373        4.35460759893761
H            0.35839100033826       -2.50293940132672        3.94259834035271
H            0.70343479996340        1.13394540648816        3.03129574838142
H            1.09481353595935        1.78952419575434        1.43701270548550
H           -2.14320149049970       -0.65780783692811       -1.39241050614044
H           -4.29011744826841       -1.29852187240672       -2.31859527629713
H           -6.21129078143173       -2.87787700894939       -2.26221869034597
H           -6.26091685834457       -1.32030801350431       -3.11639619830935
H           -7.75927500435870       -2.07708840648245       -2.58920208776444
H           -7.62892278404490       -2.19298913789703        0.52784846837595
H           -7.97203618165321       -0.45414394516775        0.38539416270428
H           -8.67706145076646       -1.58269434015102       -0.76576105655436
H           -6.14905231139376       -0.41072314728103        1.44922659654795
H           -3.99594189966310        0.25942963140736        2.33644421458707
H            5.47369350938313        3.38026152176905       -1.86816391694718
H            5.13453646251000        2.42974295235971       -0.42378973300792
H            6.38682997040229        1.90744599317400       -1.56243172716869
H            6.76658052548801        1.24967093107727       -3.75400882585597
H            6.01140096624312        2.78254766996636       -4.17563652620841
H            5.89825425784683        1.40918603572889       -5.28259001804665
H            3.91789683075162        0.24803773642534       -5.31370283195608
H            1.09272455876450       -1.48448736087323       -3.99485595455074
H            0.65860534278798        0.00414173717468       -4.83736516238448
H            1.95761671465256       -1.00919055044447       -5.46512173188793
H            0.65065602570862        0.97052988639534       -1.03615193535861
H            0.08283975831214        0.45315144929494       -2.63133251332028
H           -1.09740522177468       -2.72387062659761        1.11912193009279
H           -1.41965222585121       -4.88391301198784        2.20150038468261
H            1.66273168332991       -7.90007781757861        1.13611515417740
H            0.61453198223993       -8.96514860841017        2.07155982243952
H            0.38372552503431       -8.82509433925512        0.31963281072126
H           -1.53543029639954       -8.48270317825157        2.48581086024298
H           -1.07722600146564       -7.05265100908322        3.42903950349647
H           -2.24654213870642       -6.91676285339776        2.09754381737419
H            1.24033660681555       -6.68004901540955       -0.65440114061291
H            1.56437559965591       -4.50798504162076       -1.70009008357325
H            4.86399315208984        0.59558286904819        1.59799411220361
H            5.47133764116176        1.48340518019957        2.99911286739748
H            3.97047184039072        0.56432873867997        3.11051641630282
