130
 energy: -172.032077922799 gnorm: 0.000097244672 xtb: 6.7.1 (edcfbbe)
C            4.69121322483027        3.66099228646550        4.10563791622206
C            3.93939030183990        3.63764782362894        2.80784857939516
C            3.23090233901477        4.75974115624061        2.41017361240831
C            2.55051381515662        4.79827862581523        1.20485475659969
C            1.80903528360090        6.04383109322603        0.81548225485967
C            2.56312140423894        3.67097239111944        0.38322345693540
C            1.83040195464599        3.75180708751641       -0.93632976937627
C            0.40490184764727        3.53868284962929       -0.76886745918234
C           -0.77371200573886        3.34832672372836       -0.61491780836329
C           -2.16658880405590        3.13929710037327       -0.50175618982829
C           -2.89180742363183        2.60792257992513       -1.56692292197737
C           -4.25385758419030        2.42876750621471       -1.47953716029651
C           -4.95773836094599        2.76746982363326       -0.31580765427839
N           -6.31633943532624        2.56553892154495       -0.22421545512758
C           -7.03071366084745        2.99624415930419        0.94955098952856
C           -7.07680376982986        2.28958742207341       -1.41872296316945
C           -4.21881529631999        3.29606280848168        0.75201375765575
C           -2.85617161206087        3.47473326022114        0.66096866606977
C            3.20132570432512        2.48402034032591        0.79360407194653
B            3.01737248054277        1.13728780908100       -0.01118262177026
C            2.68326538675565       -0.19528558955081        0.77298745682912
C            3.42682494420435       -1.36765951487881        0.53445440183901
C            4.58014658829590       -1.38080777432201       -0.43021962894130
C            3.12632299457924       -2.55120927578680        1.20454430212102
C            3.86603732027598       -3.82653507218416        0.92322217105466
C            2.12384227858600       -2.55329212046506        2.15893170733846
C            1.38993550317675       -1.41615922029170        2.44068411744213
C            0.33405045394057       -1.47305295233190        3.50500148063349
C            1.65443066672549       -0.24518486811038        1.72842159979738
C            0.74071629442166        0.93584150062482        1.97233650598322
C           -0.58609203917718        0.62382087315392        1.47587450583879
C           -1.66127619561902        0.29363184661138        1.04812923719211
C           -2.92801777140877       -0.08951054401224        0.55589675862337
C           -3.05228985281476       -0.66806131029456       -0.70538190351254
C           -4.28576209747992       -1.04069606610641       -1.19192900557392
C           -5.45352432901125       -0.85444473458896       -0.44057400793521
N           -6.70096407466587       -1.16222452731171       -0.96485768902190
C           -6.77223074645892       -2.03791020633667       -2.11233429633032
C           -7.84381190877898       -1.17584817400199       -0.08315603658101
C           -5.31305138081898       -0.30100135539579        0.83771468994130
C           -4.07974180358336        0.07950162014149        1.32041638461131
C            3.18429714599532        1.03704604059973       -1.57968487739998
C            4.37495446464662        1.40646107183019       -2.22644656400700
C            5.49687756116776        2.07324932699006       -1.48103768540210
C            4.54735841199850        1.14600626553228       -3.58735852947957
C            5.81750742125077        1.52492891094298       -4.28914896032803
C            3.53497319084078        0.51677753125402       -4.29260595118846
C            2.32833964152106        0.18768350567312       -3.69393243187771
C            1.24442891658324       -0.46527229397211       -4.49979163625378
C            2.14949989887088        0.47470122178630       -2.34425731899846
C            0.79871616553120        0.24237319345236       -1.70944048674920
C            0.60852388086684       -1.13413814981793       -1.30498736791360
C            0.45979385529662       -2.26926289195988       -0.93588608214675
C            0.27486145907283       -3.56797575913905       -0.41447528793110
C           -0.62734800280949       -3.77743958454616        0.62749873631808
C           -0.78283012951688       -5.02637373347596        1.18660478004585
C           -0.04850609319756       -6.12874289258249        0.72590596501960
N           -0.23033352968576       -7.39104670940743        1.26183482622073
C            0.71944596913314       -8.43103286082065        0.94719504190756
C           -0.97425063628869       -7.53340447704516        2.48999986261769
C            0.84824205688228       -5.90786384168116       -0.32798312249942
C            1.00204817343012       -4.65705489240332       -0.88664058675195
C            3.92582710937860        2.50024687965736        2.00153833325570
C            4.73722581869811        1.31605439750126        2.44369006873682
H            5.76556599072216        3.59104114387258        3.93242423643617
H            4.40137579792874        2.82245575761226        4.73732039638744
H            4.49355234566578        4.58537607158567        4.64333748136985
H            3.21852544213902        5.63113042357815        3.05100452412563
H            1.79359606941927        6.74835641453233        1.64392921475713
H            2.28723009002545        6.53330968263224       -0.03423423422484
H            0.78235059727810        5.80921309850472        0.53719645543851
H            1.98855261840134        4.73791392698062       -1.38341537156267
H            2.21618885862346        3.00481196160199       -1.63053619821378
H           -2.37443851501737        2.33778532069751       -2.47672913517974
H           -4.77009023333176        2.00731211376797       -2.32619881360434
H           -6.59950909733869        2.53774215554897        1.84185529055295
H           -8.06931462837785        2.67761859741296        0.87854254417814
H           -7.01461555675187        4.08708240902165        1.07564013435427
H           -8.13845466644735        2.28767967940000       -1.18138341104294
H           -6.90254365388503        3.04359093997274       -2.19537968955181
H           -6.81768411439390        1.30602270522656       -1.81806705349212
H           -4.70819404518093        3.57963466511504        1.66971677265012
H           -2.31171414952664        3.88328959287562        1.50053948585212
H            5.36797819384043       -2.04374330294545       -0.07848372702515
H            5.00447795484115       -0.39316900566413       -0.56196602859928
H            4.24724817596482       -1.73901589338156       -1.40498170420274
H            3.90693502922898       -4.02158492412603       -0.14619745647797
H            3.36431162272337       -4.66257512452793        1.40493460546054
H            4.88899007587617       -3.77893968837608        1.30029714567338
H            1.90231463212759       -3.47002254146956        2.68864683788909
H           -0.63730614531985       -1.19470873008327        3.10060798337267
H            0.56760388488361       -0.78548629214780        4.31921434378384
H            0.26733864936947       -2.47816468833069        3.91505176844379
H            0.68205196497466        1.15427499280510        3.04384058612062
H            1.10082192802649        1.83110943931688        1.46693654730686
H           -2.16430471381289       -0.83472794999121       -1.29710015976743
H           -4.32981586529920       -1.48342876270326       -2.17376901591481
H           -6.27794362502694       -3.00180488054850       -1.93761819525193
H           -6.30956468892452       -1.56275480535233       -2.97937024894199
H           -7.81595860083673       -2.22598150504600       -2.35629270661893
H           -7.76115422290004       -1.93189472956506        0.70899774122802
H           -7.96655357182730       -0.19623565982884        0.37896265936052
H           -8.74065343164149       -1.38351099387628       -0.66453789012062
H           -6.17178821998421       -0.16234301609243        1.47385341074327
H           -4.00053427495143        0.51007190350388        2.30887640631733
H            5.73012041447017        3.03486752183334       -1.93897222574170
H            5.23901642204107        2.24514591999301       -0.44140561227035
H            6.40278430217726        1.46663990036517       -1.52070426254960
H            6.67462460503046        1.02840898420818       -3.83430311148458
H            5.98783245277245        2.59974671852680       -4.22917289998888
H            5.77320604895827        1.24227360191444       -5.33823671231400
H            3.68258679212037        0.29214368193924       -5.34050894270609
H            0.84889366416856       -1.33446063109850       -3.97612778944371
H            0.42016734014730        0.22868904142878       -4.67204442880421
H            1.62759286770998       -0.78150855164298       -5.46748048499359
H            0.68223643361958        0.87444199490883       -0.82689955192896
H            0.00789795933570        0.52371339125107       -2.41221174358580
H           -1.19915785289242       -2.94097784943229        1.00208585033032
H           -1.48588881300632       -5.13573427085944        1.99643030292605
H            1.74519509743595       -8.16332523962128        1.23226847775577
H            0.44428526406746       -9.34216869731308        1.47431927575421
H            0.70090770443792       -8.64826536851856       -0.12268740173383
H           -1.01214278725392       -8.58467563267525        2.76817099443167
H           -0.52703536098959       -6.97173158755564        3.32058100892390
H           -2.00091691584630       -7.18974659249506        2.35037666512963
H            1.44066130653111       -6.71745024863502       -0.72263786153101
H            1.70321287292809       -4.51626364314073       -1.69740460815063
H            4.83824524780456        0.57930673126353        1.65633044789064
H            5.73393317829794        1.63549011346454        2.74672351499023
H            4.26868005754433        0.83222500892430        3.30119271553467
