130
 energy: -172.026116722574 gnorm: 0.000079246179 xtb: 6.7.1 (edcfbbe)
C            2.82759070505982       -3.70706915658070        5.42338360183871
C            2.58079480264645       -2.46183160087801        4.62483966181597
C            3.13791895150925       -1.26390633223214        5.03854142104483
C            2.92346010583630       -0.08534777494976        4.34199475843675
C            3.55197471197356        1.18848487227545        4.82594987398066
C            2.12661244003026       -0.11483092755179        3.20042741651744
C            1.83635797819760        1.18883583704897        2.49026525390192
C            2.93793032377585        1.53103651386361        1.61316402308401
C            3.87058190789040        1.75367334242178        0.88668230597330
C            4.94025630227670        1.98660976910675       -0.00537060280563
C            4.72944095960587        2.63577106548635       -1.22038478073520
C            5.76288814164067        2.82488150958854       -2.11078011003037
C            7.05995700583032        2.37052718771232       -1.83119170185991
N            8.08351105414729        2.50951651874613       -2.74762942791037
C            9.44056381182046        2.24127780366562       -2.33726913495789
C            7.89838089546815        3.37566245495616       -3.88681952204526
C            7.26497417193450        1.73412622908770       -0.59908220848297
C            6.22856575401158        1.54507312050752        0.28969367464974
C            1.58226664806185       -1.31985900096867        2.72241579829052
B            0.80091442899171       -1.35373806624883        1.34597829898179
C           -0.61594930733036       -2.03864415997628        1.20662425200369
C           -0.86971876863662       -2.93883672956793        0.15376522963361
C            0.21698653520319       -3.35928793656085       -0.79436390944884
C           -2.13778086770668       -3.48884759196799       -0.02354465149579
C           -2.43095050754402       -4.43083183288381       -1.15324812346000
C           -3.15223423817544       -3.14966008991893        0.85516550376973
C           -2.93625902865867       -2.28506667337140        1.91351866230050
C           -4.07519580272115       -1.94561443631721        2.83040212328372
C           -1.66390777472563       -1.74381194965690        2.09673118502563
C           -1.47494455101663       -0.76587996813446        3.23704018680673
C           -2.05742754483617        0.50954243364741        2.86636374815476
C           -2.56432494588546        1.52987148378106        2.47662207635400
C           -3.16158610659779        2.70729501312182        1.97314992918952
C           -3.62196293558962        2.74203020296097        0.65631644497048
C           -4.21193035586942        3.87673093434407        0.14519957105196
C           -4.37741107082067        5.02953809399706        0.92740667200449
N           -5.01415047395672        6.14873271230230        0.43221883223320
C           -4.95903866958224        7.38330338714122        1.17675488104788
C           -5.29710262528639        6.23723139507197       -0.97973846604774
C           -3.90287871193745        4.98473602655672        2.24629298870162
C           -3.31136154433653        3.84939104292019        2.75652838489440
C            1.47126611909237       -0.72108756683301        0.06112826983737
C            2.76825708526798       -1.08063216379591       -0.34316045801271
C            3.60543378064300       -2.04530626014750        0.44701998209295
C            3.31727607848996       -0.56046475159873       -1.51551992141525
C            4.70182634875294       -0.93106310594059       -1.95645649522846
C            2.56728530606035        0.30702832172021       -2.29001007097002
C            1.29316642126044        0.69590414188569       -1.91347527886855
C            0.52073198610968        1.65026591891454       -2.77698539377592
C            0.75728347245832        0.19184048984420       -0.73108200267242
C           -0.60659886168327        0.68235435050684       -0.30102127295716
C           -1.66389399200627        0.01036554421380       -1.02730914938909
C           -2.53732369350665       -0.58514837692200       -1.60163105508920
C           -3.57234800600701       -1.31401276963380       -2.22728046509318
C           -4.79251109614912       -1.50381129150562       -1.58079680252959
C           -5.79433029322154       -2.24773400367178       -2.16414209022850
C           -5.62336620574724       -2.84196540634160       -3.42286989554397
N           -6.60581131110369       -3.63571438102326       -3.98330737528756
C           -7.92912303829045       -3.63129459206991       -3.40768921900234
C           -6.49404961407030       -4.02142821257934       -5.36939866094010
C           -4.39881278580856       -2.63038838753516       -4.07143163921084
C           -3.39767452322618       -1.88611738609015       -3.48546996833192
C            1.80846487649303       -2.49496539600163        3.46190958047598
C            1.26972098995159       -3.82558397899528        3.01939658942284
H            3.35335534521265       -4.45255983773822        4.82673078944263
H            1.88771035777954       -4.14986468852353        5.75196893218535
H            3.42896739821579       -3.48417238705070        6.30154432562521
H            3.75266240712637       -1.24650647454306        5.92845262502881
H            4.07318368632775        1.69180700376424        4.01282804457770
H            2.79647329750305        1.87126456971294        5.21792275693394
H            4.26319413550436        0.98060793044456        5.62216831574266
H            0.92374783894508        1.10962737142243        1.89959840966601
H            1.69018002520963        1.99047887099501        3.22081408625972
H            3.73785884770881        2.98858322812461       -1.46330053575012
H            5.54929681677948        3.33315894934602       -3.03707029169800
H            9.76147607742821        2.88135266690961       -1.50539046728641
H           10.11104182924989        2.40960203986656       -3.17735981726257
H            9.54370511261001        1.19734568848137       -2.03439631882207
H            8.80611615996004        3.38165327770370       -4.48643024368144
H            7.08729341263893        3.00396719982217       -4.51635634605229
H            7.67024747567332        4.40875359010268       -3.59495062181784
H            8.24333869691643        1.37590165883402       -0.32270286491597
H            6.41557940549558        1.04549596854793        1.23057182007656
H            1.20319245755484       -3.14723518186268       -0.40002380427058
H            0.10706427315522       -2.82716400456683       -1.73978082750728
H            0.15177996984554       -4.42646268892950       -0.99996610622972
H           -2.09673861305640       -4.01226926826199       -2.10032449675171
H           -3.50013101690408       -4.61747553217816       -1.22139504877721
H           -1.92444900530344       -5.38589386859384       -1.00590195417586
H           -4.13847557783985       -3.56781905678619        0.70636608298107
H           -3.88834503986000       -2.31323948256659        3.84041227806975
H           -4.99588995434933       -2.39963531376310        2.47115720424780
H           -4.21595766103428       -0.86677218870589        2.88423235768936
H           -1.96721624409763       -1.13883160570184        4.14007217101695
H           -0.41692748967478       -0.63170558176380        3.46379135270737
H           -3.50827981742852        1.86615018823974        0.03252017238810
H           -4.54624605439504        3.85539159841765       -0.87908961968482
H           -3.92948338255169        7.72339697177091        1.34575962803969
H           -5.45033944186242        7.26431797316156        2.14494700652236
H           -5.49005758175549        8.15894983023951        0.62923897333608
H           -5.79758530519399        7.18036054020857       -1.18849746057621
H           -4.38832884646191        6.18478987578478       -1.59268959063503
H           -5.96809393634209        5.43056024973530       -1.28190794117332
H           -3.99383541941808        5.84373239024518        2.89090684488010
H           -2.95639732933310        3.84396513537832        3.77768115229474
H            3.03857159740536       -2.52819254582390        1.23305189286702
H            4.02143204550725       -2.81465452641200       -0.20318682221559
H            4.43827140941630       -1.51232830782420        0.90704675535645
H            4.99308141719455       -0.34489273958769       -2.82481582713151
H            4.75637559385427       -1.98805935958680       -2.22044701551435
H            5.42259217180215       -0.74459012097638       -1.16241146654813
H            2.99157875548069        0.69769790700833       -3.20527960543082
H            1.03743680939138        1.81010049003346       -3.72086930672030
H           -0.47643711066372        1.26381910672718       -2.98368753596394
H            0.41094810434502        2.61691715190793       -2.28253965844046
H           -0.77281819426374        0.49997968232717        0.76152703193953
H           -0.68515263185894        1.76202458895499       -0.46666751195591
H           -4.94647451644954       -1.06086656062092       -0.60732823178238
H           -6.72059797112645       -2.36420425230706       -1.62509177457392
H           -8.38175790495659       -2.63135681336988       -3.40319342386476
H           -8.57277736388071       -4.29644626185767       -3.97948630459016
H           -7.89558904017117       -4.00343387625664       -2.38181875112479
H           -5.60103415466612       -4.63119046870012       -5.52040187154667
H           -7.35656076999521       -4.62391162301100       -5.64638478510888
H           -6.44611018374578       -3.15618304090081       -6.04308095667314
H           -4.21498416014281       -3.05104992262964       -5.04668218727256
H           -2.46155939565920       -1.74328820874998       -4.00788163583909
H            0.61851949156567       -4.24174462145992        3.78834063772637
H            0.70192548844600       -3.74688994880530        2.10023269021854
H            2.08574935649155       -4.53271479359049        2.86447436384888
