  43
  -69.5908266410000       0.365642617531571      !
 N         -6.7650465363       -3.8707627678       -0.0871722577
 C         -5.8192061819       -3.2227404402       -0.0854882327
 C         -4.6563048654       -2.4196531017       -0.0819002579
 C         -4.6929373639       -1.1396469120       -0.6365165889
 C         -3.5595181439       -0.3533324689       -0.6268113465
 C         -2.3728112261       -0.8257812126       -0.0671051688
 C         -1.1489032227       -0.0109273170       -0.0411817332
 C         -1.1879753607        1.3821786329       -0.0193935911
 C          0.0076374859        2.0942417382        0.0163411697
 C          0.0147947829        3.5632976206        0.0627311053
 C         -0.8980088753        4.2513902871        0.8582006986
 C         -0.8847956588        5.6329452294        0.9046101701
 C          0.0327926300        6.3462991697        0.1514623333
 C          0.9410573396        5.6709120178       -0.6465880115
 C          0.9359855316        4.2892331282       -0.6882953271
 C          1.1975271751        1.3716182244        0.0104496966
 C          1.1466690916       -0.0210671457       -0.0134328535
 C          2.3640281948       -0.8457850158       -0.0120320997
 C          3.5656832713       -0.3814135502       -0.5460260572
 C          4.6928705133       -1.1764256725       -0.5351404697
 C          4.6346984039       -2.4575443729        0.0150046596
 C          5.7907086009       -3.2703306827        0.0313212668
 N          6.7304886043       -3.9270742848        0.0446503669
 C          3.4335763468       -2.9356234728        0.5422293084
 C          2.3131002139       -2.1338925155        0.5222359845
 N         -0.0041077978       -0.6843794639       -0.0225139698
 C         -2.3430109190       -2.1129730679        0.4711324306
 C         -3.4698727621       -2.9058778788        0.4704395205
 H         -5.6106808326       -0.7744670742       -1.0737238206
 H         -3.5946851393        0.6261893318       -1.0793294039
 H         -2.1294256337        1.9081855518       -0.0184475778
 H         -1.6045279794        3.6991762413        1.4610078243
 H         -1.5931125390        6.1552496753        1.5307300488
 H          0.0396482255        7.4254772336        0.1858113326
 H          1.6557216797        6.2229708136       -1.2390574820
 H          1.6350848162        3.7675860998       -1.3259091188
 H          2.1423277992        1.8878836543        0.0739276839
 H          3.6180438256        0.5996226058       -0.9936142872
 H          5.6222351333       -0.8174106173       -0.9525621099
 H          3.3933499407       -3.9304941298        0.9607338285
 H          1.3765988972       -2.4891485272        0.9216747527
 H         -1.4176312577       -2.4745056313        0.8902667306
 H         -3.4458845521       -3.8998955263        0.8920121355
  43
  -69.5905841773000       0.282896912623739      !
 N         -6.7351324773       -3.9051619659       -0.0312343554
 C         -5.7960462588       -3.2474429423       -0.0220200285
 C         -4.6404477672       -2.4341020415       -0.0082837208
 C         -3.4507267692       -2.8953610767       -0.5751174902
 C         -2.3303815657       -2.0933534505       -0.5561301374
 C         -2.3710881374       -0.8216633389        0.0180190882
 C         -1.1511208524       -0.0010600756        0.0159548336
 C         -1.1900787092        1.3917916077        0.0498694967
 C          0.0066404003        2.1027872078        0.0654059515
 C          0.0154745360        3.5717242071        0.1225503979
 C         -0.8840886128        4.3154944889       -0.6368825143
 C         -0.8694179059        5.6968835077       -0.5850287204
 C          0.0360019442        6.3534576567        0.2318182095
 C          0.9308976571        5.6218169692        0.9945851979
 C          0.9249790222        4.2406009903        0.9379169653
 C          1.1965170771        1.3812319561        0.0277388409
 C          1.1450382013       -0.0099074665       -0.0393552010
 C          2.3584794839       -0.8381887217       -0.0936223352
 C          2.3041458192       -2.1471596730        0.3884499972
 C          3.4199477121       -2.9552142162        0.3638781362
 C          4.6190115653       -2.4620917992       -0.1545571647
 C          5.7710505122       -3.2802671847       -0.1807252172
 N          6.7067839571       -3.9424532439       -0.2020521335
 C          4.6795906463       -1.1598000464       -0.6524976848
 C          3.5570625345       -0.3586045991       -0.6206773627
 N         -0.0061650415       -0.6721614793       -0.0359614897
 C         -3.5609901081       -0.3735149489        0.5906766174
 C         -4.6877351427       -1.1693951345        0.5798519837
 H         -3.4188938469       -3.8774740225       -1.0234465115
 H         -1.4014791110       -2.4334660845       -0.9866039896
 H         -2.1310739288        1.9183384693        0.0682978168
 H         -1.5810245302        3.8080758103       -1.2883569284
 H         -1.5664708698        6.2635435401       -1.1846290137
 H          0.0441228561        7.4323013395        0.2738639667
 H          1.6358522627        6.1292033218        1.6366225163
 H          1.6137035463        3.6735130369        1.5476614635
 H          2.1422068654        1.8991502873        0.0480814555
 H          1.3687177731       -2.5106394363        0.7838941816
 H          3.3781557081       -3.9656182043        0.7425941243
 H          5.6073080819       -0.7888202329       -1.0629990534
 H          3.6109624434        0.6393241751       -1.0293279355
 H         -3.6039981509        0.5933546831        1.0690244969
 H         -5.6083153693       -0.8238266929        1.0270345655
  43
  -69.5905142600000       0.262721999959614      !
 N         -6.7213990244       -3.9162574161        0.1023439653
 C         -5.7857058037       -3.2543068286        0.0864974422
 C         -4.6332189782       -2.4368524799        0.0658333762
 C         -3.4199842986       -2.9232907171        0.5568432051
 C         -2.3021166651       -2.1180210422        0.5320581108
 C         -2.3680547046       -0.8182769543        0.0269900011
 C         -1.1492536805        0.0037948601        0.0177708262
 C         -1.1883228603        1.3970325440        0.0408545255
 C          0.0079305752        2.1087633277        0.0131109229
 C          0.0143693173        3.5785943293        0.0155869007
 C         -0.9002265495        4.2903037594       -0.7566922019
 C         -0.8893931006        5.6727041704       -0.7585547495
 C          0.0274494740        6.3627465584        0.0171030697
 C          0.9371801763        5.6635009935        0.7926539690
 C          0.9348928224        4.2811380010        0.7893223714
 C          1.1984132812        1.3875356401       -0.0191585803
 C          1.1481784084       -0.0053964836       -0.0072930901
 C          2.3603609186       -0.8369656972       -0.0259184442
 C          3.5797651674       -0.3766733983        0.4699513349
 C          4.6986844730       -1.1829948573        0.4403894625
 C          4.6135627140       -2.4713482860       -0.0890217205
 C          5.7614193889       -3.2951868406       -0.1265159646
 N          6.6899977890       -3.9678765461       -0.1436540988
 C          3.3943712184       -2.9451000396       -0.5779415509
 C          2.2825851270       -2.1319873367       -0.5413589244
 N         -0.0032979192       -0.6671424336        0.0023265390
 C         -3.5818649642       -0.3448129859       -0.4701598244
 C         -4.7067695734       -1.1431795490       -0.4524516406
 H         -3.3685439176       -3.9271738800        0.9518667481
 H         -1.3554332139       -2.4771272344        0.9043246557
 H         -2.1269939714        1.9233580565        0.1130781102
 H         -1.6078500783        3.7557267022       -1.3753384142
 H         -1.5960329590        6.2135092140       -1.3695880717
 H          0.0328629621        7.4425194686        0.0177514616
 H          1.6503303296        6.1975457632        1.4028458557
 H          1.6355472446        3.7397744647        1.4082777891
 H          2.1411935577        1.9070556062       -0.0875424277
 H          3.6538424528        0.6100403600        0.9014055837
 H          5.6425256453       -0.8269836932        0.8268617318
 H          3.3337091702       -3.9452919501       -0.9809140198
 H          1.3315435883       -2.4809792841       -0.9121457862
 H         -3.6465924161        0.6458923649       -0.8940907658
 H         -5.6460659110       -0.7771073789       -0.8405014863
  43
  -69.5894885482000       8.873846988507615E-002 !
 N         -6.7353702749       -3.8856532667        0.1101733584
 C         -5.7939622242       -3.2324606642        0.0735553857
 C         -4.6341724657       -2.4261537058        0.0325099055
 C         -3.4406498065       -2.8886905099        0.5899600395
 C         -2.3167186758       -2.0925912737        0.5511355261
 C         -2.3575711874       -0.8258326537       -0.0322908975
 C         -1.1391721041       -0.0021824112       -0.0414783496
 C         -1.1913751913        1.3904469303       -0.0143903103
 C          0.0005525969        2.1085303802        0.0020331658
 C          0.0003844220        3.5776937841        0.0475643444
 C         -0.9097286701        4.3080070454       -0.7122104471
 C         -0.9047908188        5.6898474490       -0.6748284413
 C          0.0024032768        6.3612821997        0.1275793694
 C          0.9078229404        5.6436275766        0.8909038664
 C          0.9107818245        4.2618297662        0.8491525047
 C          1.1956088355        1.3944828505       -0.0220623130
 C          1.1607272603        0.0008816475       -0.0522687402
 C          2.3752947010       -0.8295094427       -0.0699726330
 C          3.6470498647       -0.3003596002       -0.2935745535
 C          4.7606664663       -1.1143032596       -0.2896768111
 C          4.6230993777       -2.4840892119       -0.0644572342
 C          5.7648187906       -3.3160018055       -0.0532734267
 N          6.6938862802       -3.9874670497       -0.0410341709
 C          3.3545301435       -3.0279137262        0.1461847216
 C          2.2503732930       -2.2050133244        0.1414619390
 N          0.0095654703       -0.6655065328       -0.0509034218
 C         -3.5509342012       -0.3773269719       -0.5967667386
 C         -4.6814592564       -1.1672070338       -0.5675443759
 H         -3.4096758862       -3.8660127116        1.0486941230
 H         -1.3873261778       -2.4339616773        0.9788327230
 H         -2.1368382276        1.9062675046        0.0427375368
 H         -1.6078812988        3.7894751012       -1.3532372668
 H         -1.6110980824        6.2452675608       -1.2739691140
 H          0.0042297728        7.4404935585        0.1575820158
 H          1.6151175766        6.1625517867        1.5208973945
 H          1.6083219518        3.7065948205        1.4597332558
 H          2.1307033196        1.9301876785       -0.0165290987
 H          3.7793184566        0.7528352119       -0.4852147083
 H          5.7429135993       -0.6989921209       -0.4616791454
 H          3.2500524660       -4.0899262983        0.3113452433
 H          1.2633999585       -2.6096458352        0.2973446274
 H         -3.5925549405        0.5861006236       -1.0822879890
 H         -5.6052647632       -0.8207747637       -1.0073539150
