  43
        -69.85683313
 N         -6.7413606852       -3.8945255405        0.0014064676
 C         -5.8012626047       -3.2381893595        0.0021548263
 C         -4.6444476081       -2.4264696189        0.0053340576
 C         -3.4471723278       -2.9087057011       -0.5270912770
 C         -2.3257076917       -2.1080818226       -0.5188086374
 C         -2.3726596988       -0.8172468971        0.0103801779
 C         -1.1512304022        0.0010949709       -0.0015031565
 C         -1.1880274993        1.3943394104       -0.0163232900
 C          0.0096799509        2.1037801097       -0.0071849228
 C          0.0204636183        3.5738008661       -0.0006944795
 C         -0.8660786256        4.2921231181       -0.7989440839
 C         -0.8495467987        5.6744572786       -0.7946273522
 C          0.0446664889        6.3576177509        0.0127065257
 C          0.9265146388        5.6515395956        0.8137979002
 C          0.9188070439        4.2691997395        0.8047971079
 C          1.1986053098        1.3796978849       -0.0018257100
 C          1.1454815062       -0.0128564778       -0.0215940288
 C          2.3580153628       -0.8442075122       -0.0287780442
 C          2.2938852380       -2.1356527608        0.4973467786
 C          3.4083805121       -2.9456266116        0.5176551606
 C          4.6160943139       -2.4723924619        0.0007646346
 C          5.7668271823       -3.2925867352        0.0203779766
 N          6.7015054096       -3.9564165313        0.0361547796
 C          4.6866964268       -1.1881797062       -0.5408914701
 C          3.5653528956       -0.3848008838       -0.5538217506
 N         -0.0069083877       -0.6729936942       -0.0128082977
 C         -3.5702291755       -0.3479120179        0.5490753095
 C         -4.6982046639       -1.1421210108        0.5486406884
 H         -3.4104417297       -3.9057746179       -0.9406883307
 H         -1.3910516798       -2.4641666218       -0.9231177603
 H         -2.1281829821        1.9225183407       -0.0303906035
 H         -1.5540485976        3.7634557994       -1.4430096740
 H         -1.5363602415        6.2210191127       -1.4239638240
 H          0.0542178615        7.4372577641        0.0175747840
 H          1.6226450954        6.1798371817        1.4485560218
 H          1.5971387054        3.7225725442        1.4441588494
 H          2.1448698854        1.8966926156        0.0149730088
 H          1.3518859942       -2.4839410369        0.8908591320
 H          3.3589266561       -3.9422743837        0.9303731332
 H          5.6212281582       -0.8329056938       -0.9498264955
 H          3.6273422744        0.5983273819       -0.9958381071
 H         -3.6186170180        0.6349760892        0.9930267216
 H         -5.6247817764       -0.7800176017        0.9695845546
  43
        -69.85671948
 N         -6.7283168451       -3.9042381029       -0.1069043960
 C         -5.7914507711       -3.2439576882       -0.0906800546
 C         -4.6374970919       -2.4285323329       -0.0717883909
 C         -3.4332932149       -2.9295754646        0.4267093537
 C         -2.3139051329       -2.1261585016        0.4406054588
 C         -2.3694602939       -0.8139930444       -0.0325876852
 C         -1.1493830702        0.0056287460       -0.0010490353
 C         -1.1866389182        1.3979198065        0.0564671048
 C          0.0110260587        2.1077464233        0.0663400616
 C          0.0197321699        3.5770344071        0.1059353320
 C         -0.8808800006        4.3097589095       -0.6631182725
 C         -0.8678455680        5.6917445406       -0.6299890115
 C          0.0371594108        6.3602361301        0.1777788014
 C          0.9328726919        5.6398988884        0.9503365562
 C          0.9284689255        4.2580643447        0.9121570420
 C          1.2007445886        1.3851960836        0.0355082971
 C          1.1481325821       -0.0074912762        0.0114640064
 C          2.3591495077       -0.8407343002       -0.0081514911
 C          3.5709292437       -0.3954828039        0.5191468463
 C          4.6889158510       -1.2030258252        0.4877012339
 C          4.6105152930       -2.4774835001       -0.0753151594
 C          5.7575386344       -3.3023959745       -0.1146546095
 N          6.6852154574       -3.9762843244       -0.1334483478
 C          3.3988124853       -2.9363654041       -0.5960021399
 C          2.2878529628       -2.1222240622       -0.5572505730
 N         -0.0043839245       -0.6669820061       -0.0145292959
 C         -3.5741587650       -0.3257644655       -0.5375588459
 C         -4.7004552664       -1.1220885318       -0.5584705908
 H         -3.3899535586       -3.9431773949        0.7971198261
 H         -1.3740569788       -2.4963940212        0.8192349636
 H         -2.1255457293        1.9241250104        0.1264694596
 H         -1.5790405921        3.7923183118       -1.3065884279
 H         -1.5634587904        6.2491502282       -1.2387523890
 H          0.0442577782        7.4396382121        0.2057076844
 H          1.6366977808        6.1570090498        1.5854337306
 H          1.6179659682        3.6999129592        1.5287263940
 H          2.1453396771        1.9043986482       -0.0042511203
 H          3.6394289312        0.5799171263        0.9764727944
 H          5.6268112161       -0.8587233416        0.8984919427
 H          3.3432351649       -3.9259822511       -1.0249779087
 H          1.3425104906       -2.4598898090       -0.9523046682
 H         -3.6303274948        0.6754173551       -0.9374140872
 H         -5.6326460061       -0.7445069154       -0.9525792992
  43
        -69.85630138
 N         -6.7703589525       -3.8620391813       -0.0561343147
 C         -5.8234121657       -3.2156636334       -0.0624733193
 C         -4.6591612919       -2.4145523339       -0.0689700459
 C         -4.6849446098       -1.1544358454       -0.6679681395
 C         -3.5502971077       -0.3698348603       -0.6682202763
 C         -2.3731024789       -0.8243028353       -0.0745673514
 C         -1.1481674176       -0.0107447846       -0.0582244569
 C         -1.1848948110        1.3823346882       -0.0851729930
 C          0.0114029338        2.0935420931       -0.0559043890
 C          0.0206729100        3.5633121896       -0.0601903706
 C         -0.9027419640        4.2797649378        0.6970773099
 C         -0.8875847628        5.6620787299        0.6959257289
 C          0.0426596794        6.3476899426       -0.0673935480
 C          0.9615995317        5.6438521992       -0.8277480176
 C          0.9545114070        4.2615657616       -0.8217696964
 C          1.1998584647        1.3694907801       -0.0187550708
 C          1.1466985930       -0.0231155543        0.0047201574
 C          2.3623143427       -0.8489862333        0.0531007748
 C          3.5727993808       -0.4050273243       -0.4783047080
 C          4.6981671750       -1.2007565759       -0.4228417919
 C          4.6292224330       -2.4620074823        0.1702868247
 C          5.7832935898       -3.2753526498        0.2322287015
 N          6.7215039613       -3.9325507487        0.2825102723
 C          3.4193465069       -2.9199005897        0.6954094750
 C          2.3008397254       -2.1177807448        0.6307151227
 N         -0.0050782709       -0.6847423178        0.0010829840
 C         -2.3539165052       -2.0921574219        0.5082081541
 C         -3.4821563875       -2.8830423834        0.5177934748
 H         -5.5952661634       -0.8033119986       -1.1314185305
 H         -3.5767357990        0.5935048762       -1.1547897117
 H         -2.1252418074        1.9093702317       -0.1166984178
 H         -1.6193581703        3.7497056391        1.3078017816
 H         -1.6042919743        6.2067030134        1.2927975765
 H          0.0510629819        7.4273998050       -0.0702473345
 H          1.6862033118        6.1741023946       -1.4280131246
 H          1.6621772673        3.7172139671       -1.4302899782
 H          2.1445781380        1.8863261202        0.0411918918
 H          3.6338063684        0.5598744224       -0.9586707740
 H          5.6344276783       -0.8576817000       -0.8382537945
 H          3.3708858030       -3.8996509360        1.1473747839
 H          1.3577226553       -2.4577105976        1.0279188070
 H         -1.4356791990       -2.4402716311        0.9535884635
 H         -3.4664547325       -3.8619235725        0.9737705170
  43
        -69.85604442
 N         -6.7422737811       -3.8749017668        0.0503266928
 C         -5.7996244137       -3.2230483883        0.0229421566
 C         -4.6383204200       -2.4184233959       -0.0067155988
 C         -3.4480095215       -2.8873715872        0.5522431152
 C         -2.3225904978       -2.0929102877        0.5245702401
 C         -2.3587859863       -0.8215286977       -0.0490249655
 C         -1.1389829132        0.0000881307       -0.0464350601
 C         -1.1889746284        1.3925480270       -0.0085976109
 C          0.0040694866        2.1084449776        0.0186552711
 C          0.0061598505        3.5772024250        0.0757640702
 C         -0.8994165210        4.3150280545       -0.6821711577
 C         -0.8923307463        5.6965207969       -0.6338773486
 C          0.0124850793        6.3600669279        0.1777253252
 C          0.9133737960        5.6348795810        0.9392895346
 C          0.9142037525        4.2534503636        0.8866611345
 C          1.1980235969        1.3925711812       -0.0058838892
 C          1.1609435382       -0.0006873906       -0.0472249923
 C          2.3741862881       -0.8329845965       -0.0662052344
 C          3.6477853001       -0.3042611750       -0.2801109879
 C          4.7600118246       -1.1201093348       -0.2777987044
 C          4.6191758742       -2.4913896470       -0.0639818263
 C          5.7594431579       -3.3253114877       -0.0544035101
 N          6.6873245254       -3.9984366386       -0.0434274983
 C          3.3487946058       -3.0346906427        0.1368626378
 C          2.2460462960       -2.2098956759        0.1338369780
 N          0.0086740238       -0.6651003949       -0.0561055054
 C         -3.5489301354       -0.3665561194       -0.6151190055
 C         -4.6808908353       -1.1547115795       -0.5970274731
 H         -3.4206660254       -3.8683273675        1.0033895651
 H         -1.3956397516       -2.4392235288        0.9535906512
 H         -2.1338134277        1.9095152832        0.0484927393
 H         -1.5956396186        3.8027522189       -1.3302874438
 H         -1.5950948400        6.2578462223       -1.2316794833
 H          0.0159856031        7.4390038700        0.2162412050
 H          1.6187874618        6.1476189555        1.5764157213
 H          1.6081513409        3.6922349695        1.4958663165
 H          2.1339796183        1.9266194391        0.0079276121
 H          3.7826473306        0.7501828833       -0.4628682099
 H          5.7436910962       -0.7051332551       -0.4422600041
 H          3.2418236517       -4.0977910734        0.2931923391
 H          1.2577288642       -2.6140584703        0.2822429549
 H         -3.5868270220        0.6007346175       -1.0932072386
 H         -5.6021934881       -0.8032507870       -1.0380956040
