93
 energy: -141.137081976758 gnorm: 0.000068290367 xtb: 6.7.1 (edcfbbe)
C           -0.01873028076823        1.39254554980129        1.75816770763064
C            0.89105208886045        0.60033461195273        0.86786467976558
C            2.13163281359874        1.11784975304733        0.53048983175808
C            3.03805914740055        0.43029264537336       -0.26947346254842
C            4.32869699596853        1.07544613962414       -0.57570962750771
C            4.34762892564268        2.35442916525431       -1.12728524206231
C            5.54846660116942        2.98420287290981       -1.39816236695778
C            6.74792083106944        2.35485498911802       -1.11946398401806
C            6.74149364702091        1.08375322001087       -0.55302425237255
N            7.95346483066152        0.44385696582279       -0.25029922272057
C            8.31308575831799       -0.83112096508797       -0.63525450506136
C            7.62395346158163       -1.74449022599669       -1.42024885036842
C            8.22905704375394       -2.95906745144669       -1.67966107256668
C            9.49445643385545       -3.26222116265296       -1.18188869039977
C           10.19605287404984       -2.34780283902360       -0.42141680359771
C            9.60831025212734       -1.12035827898894       -0.14647336254302
C           10.04187661541602        0.04528405307018        0.57173730171700
C           11.19681785825130        0.36024453731778        1.27492525457815
C           11.28590315640332        1.59798157650598        1.88037448915175
C           10.23589571135363        2.51052216463888        1.80366916086870
C            9.07680022855041        2.22039607591284        1.11004300787188
C            8.99093741895994        0.98718816442901        0.47933068096795
C            5.53444413010341        0.44941167242446       -0.28409962834858
C            2.69192941204713       -0.83098614531212       -0.76110472202593
C            3.59908980991151       -1.61493315798338       -1.66300882822840
C            1.45332757012962       -1.35042546569436       -0.42088780297521
C            0.54443875043795       -0.66130227204159        0.37495333387394
C           -0.75568538586821       -1.29379262375615        0.66250237153972
C           -0.79290424432924       -2.60275753741935        1.17581680539072
C           -2.01734905836783       -3.20342939164364        1.45298132074071
C           -3.20241727387300       -2.56129556666942        1.19629143935636
C           -3.19850535988083       -1.25592921191861        0.62803310772540
C           -4.33560057755185       -0.50144682665623        0.31009477617162
N           -4.27061173301154        0.83832093160909        0.12763967393282
C           -5.50359205725118        1.27168921241830       -0.00628587617700
C           -5.93939871139332        2.62283401902741       -0.14726934558470
C           -5.02224032035784        3.67238355303281       -0.09395412368662
C           -5.45214634593751        4.98185521272326       -0.18736940435036
C           -6.80722983274770        5.23766305643711       -0.32461552869556
C           -7.72354945505125        4.20116615770220       -0.38557131857947
C           -7.32338745692112        2.86316393412801       -0.31086443658444
C           -8.25491133799855        1.74896932774575       -0.41628855078044
C           -9.60265112782405        1.95297138989187       -0.69140970049555
C          -10.49798171092997        0.90818240912225       -0.83960421978999
C          -10.05024669529661       -0.41151333055551       -0.73838656323940
C           -8.73709105381318       -0.66681781613474       -0.46099832743980
C           -7.80091415249053        0.38566971176354       -0.26803158655859
C           -6.45186948100360        0.18019092055767        0.01560428631784
N           -5.68530814149424       -0.94512268390240        0.22307530355941
C           -6.09298203374457       -2.28151195470433        0.26199648416565
C           -7.01716180650319       -2.71261031737824        1.21586364843402
C           -7.39437315434302       -4.04020665306562        1.25640736494939
C           -6.85756649927825       -4.94946285543005        0.35640473462386
C           -5.93621108684666       -4.52378033843000       -0.58822376851686
C           -5.55080366750500       -3.19883771182301       -0.64023506175115
C           -1.93526748165619       -0.64038007999271        0.40262351058056
H           -0.62832839516287        2.07683545003650        1.16834436979192
H           -0.68953364829088        0.74190031206280        2.31351347102391
H            0.56472085597024        1.98584730295845        2.45967064029725
H            2.41728958666589        2.08723128664620        0.91595250868773
H            3.41312238164369        2.84535414297072       -1.35499321177657
H            5.55225274014162        3.97115995100965       -1.83701008108055
H            7.68815992126504        2.83417691347520       -1.34678341883321
H            6.65253955813388       -1.51067075200557       -1.82713630606666
H            7.71119573351456       -3.68783060025190       -2.28591054902459
H            9.93281777696511       -4.22357869872940       -1.40504848331971
H           11.18362921661619       -2.57630921462893       -0.04985980471109
H           12.00433029557196       -0.35271896115673        1.34715409511874
H           12.17672012000345        1.86385929982702        2.42983680708636
H           10.32877305775878        3.46508520448351        2.30047461313690
H            8.26150698413745        2.92701356114237        1.07004279079499
H            5.53865735440059       -0.52252314755496        0.18557961837677
H            4.24964226567432       -2.26785363110062       -1.07990379482140
H            3.01369636489967       -2.24275571693011       -2.33166521707270
H            4.22168259172737       -0.95202665848962       -2.26017346754686
H            1.16831513551126       -2.31921168120663       -0.80806080727280
H            0.13007762960253       -3.12139039966848        1.38537866705018
H           -2.03486890612048       -4.19228403490769        1.88910630101173
H           -4.13135464137083       -3.03090268073253        1.47271893698805
H           -3.97905913094393        3.42661730462437        0.02843310219194
H           -4.74373140610281        5.79538619085746       -0.14727221263722
H           -7.15923383143001        6.25732963471094       -0.38696595914652
H           -8.76611304736026        4.45555162821766       -0.48969802928612
H           -9.98048232045073        2.95608731659999       -0.80962274659945
H          -11.53617153656996        1.11380622715436       -1.05092807050492
H          -10.74126653574090       -1.22825476158729       -0.88611987260090
H           -8.39357561054412       -1.68661931790294       -0.41110167920315
H           -7.42352955830387       -2.00047986894908        1.91947457632465
H           -8.10528062251050       -4.37012858302634        1.99939717239511
H           -7.15479529097481       -5.98630428763296        0.39408600859513
H           -5.51786874570058       -5.22869199870970       -1.29109157123104
H           -4.83221273906694       -2.85958870802198       -1.37132236127698
H           -1.93754549771989        0.34864292589569       -0.02463225428139
