  93
       -141.13364929
 C         -0.0108945133        1.3604767859        1.8975307664
 C          0.8930659596        0.5801790635        0.9910783205
 C          2.1332187064        1.0991017899        0.6544999472
 C          3.0316725638        0.4231056033       -0.1646001183
 C          4.3154963789        1.0760702002       -0.4825735267
 C          4.3174843774        2.3653869824       -1.0105221056
 C          5.5090304760        3.0036039965       -1.3014000573
 C          6.7167094828        2.3719298389       -1.0675904674
 C          6.7281572048        1.0905863236       -0.5244708700
 N          7.9505714488        0.4491647875       -0.2703315677
 C          8.3041998256       -0.8154723865       -0.6934368707
 C          7.5917586572       -1.7201052652       -1.4677485193
 C          8.1959400178       -2.9241921779       -1.7744725799
 C          9.4828272487       -3.2252494645       -1.3340918557
 C         10.2068985915       -2.3189821909       -0.5845613511
 C          9.6202353152       -1.1028410613       -0.2622426574
 C         10.0735066049        0.0531233242        0.4597875956
 C         11.2534662801        0.3643953922        1.1215117370
 C         11.3581679157        1.5921611998        1.7450438528
 C         10.2994114544        2.4974844724        1.7270022856
 C          9.1151033655        2.2103476716        1.0758191838
 C          9.0126122355        0.9878373835        0.4267211030
 C          5.5301869113        0.4482996548       -0.2338954656
 C          2.6790246434       -0.8302549692       -0.6720794064
 C          3.5754909343       -1.6022641181       -1.5947953858
 C          1.4415093005       -1.3517227168       -0.3310884619
 C          0.5386672674       -0.6715811893        0.4791129611
 C         -0.7658877544       -1.3008524832        0.7536221025
 C         -0.8139970085       -2.6167999908        1.2461641732
 C         -2.0433561296       -3.2162668048        1.5009394503
 C         -3.2230974411       -2.5663721466        1.2371637241
 C         -3.2069242467       -1.2542014113        0.6868542046
 C         -4.3398381979       -0.4950205665        0.3567188317
 N         -4.2793852367        0.8471440764        0.2202811661
 C         -5.5123491368        1.2763453880        0.0521448472
 C         -5.9571970373        2.6266716668       -0.0543811769
 C         -5.0583072851        3.6841722047        0.0875032104
 C         -5.5028203294        4.9916193078        0.0363984210
 C         -6.8543732564        5.2369355115       -0.1457509468
 C         -7.7525435945        4.1931409904       -0.2963580101
 C         -7.3362419723        2.8580138221       -0.2702053630
 C         -8.2444431958        1.7397660508       -0.4741706631
 C         -9.5744270461        1.9392562438       -0.8299038726
 C        -10.4443188006        0.8913590305       -1.0722478911
 C         -9.9875721121       -0.4268819908       -0.9865984928
 C         -8.6919525097       -0.6783214539       -0.6346353365
 C         -7.7825299720        0.3765187261       -0.3481963376
 C         -6.4475757665        0.1765821797       -0.0001574422
 N         -5.6789423238       -0.9474386555        0.2028276709
 C         -6.0835923213       -2.2842543799        0.2150824898
 C         -7.0587387331       -2.7198666692        1.1154575921
 C         -7.4364774827       -4.0473085966        1.1308023647
 C         -6.8501121698       -4.9535454701        0.2586105606
 C         -5.8789856475       -4.5236971067       -0.6329643233
 C         -5.4922449235       -3.1987012330       -0.6597938887
 C         -1.9403715241       -0.6379279217        0.4913886652
 H         -0.6190510832        2.0573868379        1.3210727779
 H         -0.6831639345        0.7027663803        2.4427521307
 H          0.5766255960        1.9389550738        2.6079593308
 H          2.4240538245        2.0613179428        1.0538344839
 H          3.3762313646        2.8575929356       -1.2050701492
 H          5.4988592504        3.9983961057       -1.7220133949
 H          7.6494232505        2.8569690521       -1.3130300206
 H          6.6032314727       -1.4876089138       -1.8315428278
 H          7.6598935578       -3.6459440291       -2.3731687565
 H          9.9200919841       -4.1779428061       -1.5935117404
 H         11.2104555335       -2.5454669434       -0.2573342697
 H         12.0682781991       -0.3433076261        1.1481574141
 H         12.2686086298        1.8552853996        2.2627858424
 H         10.4055770767        3.4440230764        2.2362436498
 H          8.2939624807        2.9111867933        1.0817753975
 H          5.5492993377       -0.5316894135        0.2183045626
 H          4.2353326419       -2.2603818087       -1.0283541694
 H          2.9823392638       -2.2238175541       -2.2623036671
 H          4.1880683410       -0.9314355766       -2.1933932288
 H          1.1510802516       -2.3135523873       -0.7313258455
 H          0.1046212199       -3.1422356240        1.4578555757
 H         -2.0700744078       -4.2107586697        1.9235593078
 H         -4.1573502779       -3.0349952411        1.4971316106
 H         -4.0182991473        3.4461206909        0.2464688317
 H         -4.8083220672        5.8110259012        0.1444833689
 H         -7.2183307964        6.2539222111       -0.1735346433
 H         -8.7939042494        4.4386792843       -0.4297663006
 H         -9.9552807238        2.9421985344       -0.9400756270
 H        -11.4688486409        1.0930139908       -1.3451596943
 H        -10.6574072632       -1.2448158436       -1.2071636571
 H         -8.3396918343       -1.6957548970       -0.5983560460
 H         -7.5037399112       -2.0103240467        1.7979819986
 H         -8.1862073456       -4.3802813625        1.8331743018
 H         -7.1481090352       -5.9906121242        0.2765464731
 H         -5.4233364955       -5.2258555912       -1.3151352251
 H         -4.7359911467       -2.8566654555       -1.3502473009
 H         -1.9335312342        0.3578032196        0.0798008227
