112
 energy: -169.740912301985 gnorm: 0.000052461758 xtb: 6.7.1 (edcfbbe)
C           -8.80124916402793       -3.44940792035026       -2.50486630587411
C           -8.60382012399650       -2.17691846497221       -3.01587118021626
C           -7.95176192779946       -1.21425916865455       -2.27031886813253
C           -7.47101187574577       -1.51100883624422       -0.99330633836864
N           -6.80413940915459       -0.53782140037458       -0.24608062119387
C           -6.08681421489826        0.47290942698494       -0.90404455038056
C           -5.23306398503013        0.15987279983095       -1.96044448048529
C           -4.53275832022033        1.15984319369609       -2.60490436732531
C           -4.66694895015490        2.48048566560024       -2.20586446322391
C           -5.51842857545650        2.79609278518896       -1.16074024320643
C           -6.23005892333488        1.80284716829172       -0.51579134040778
C           -6.91491439968179       -0.51187003136924        1.15207197653638
C           -8.14201289832088       -0.79230194246112        1.75360626642492
C           -8.27447090870549       -0.80032874749179        3.12807213596366
C           -7.18088613674512       -0.51747616534482        3.93076491665530
C           -5.96456596898664       -0.21796508996618        3.34447296947830
C           -5.80790827942170       -0.20863650615742        1.96236902446995
C           -4.48321346052163        0.10972523229583        1.38405882050288
C           -3.95236609064988        1.40191949092293        1.52005092770644
C           -4.64181436258194        2.43332781941448        2.21052857619088
C           -4.11628250771917        3.68342047677406        2.32619257324979
C           -2.86540968980834        3.98694651236622        1.75223518428808
C           -2.17776498833424        3.03200404953425        1.06974896776252
C           -2.69199443095522        1.71668953660564        0.92463603049792
C           -1.99409605281801        0.73774302035319        0.20677042972932
C           -0.71193038680885        1.08099238023802       -0.45155425067986
C           -0.72361232254271        1.51808257603920       -1.77058452511629
C            0.44761159773533        1.84788152207698       -2.42299062670351
C            1.67805877858160        1.75372578146322       -1.77029865305380
C            2.90675444945830        2.07751860128469       -2.41438281610223
C            4.08953705399973        1.97632543318562       -1.76594553577211
C            4.15765455656485        1.54990937430641       -0.40627912281102
C            5.37580668218192        1.41255620447704        0.27861306210502
C            6.67282318678255        1.70182400382105       -0.36619170740737
C            6.99457121061680        2.99281831907586       -0.76831546531676
C            8.23622715723060        3.28509726114787       -1.30450628709174
C            9.17851586125954        2.27874027047074       -1.44548258621229
C            8.87327258422777        0.98674241831353       -1.06242382753433
C            7.62547092733829        0.68360729916019       -0.52190083294944
N            7.32203429671739       -0.63888616850771       -0.15113511270477
C            8.24068011919094       -1.38113795560808        0.58944261814699
C            9.09231596413266       -0.74966738149380        1.49791684880520
C           10.00723780809302       -1.48466446745715        2.22637810312982
C           10.08768990217738       -2.85910699713786        2.07163809992444
C            9.24475579798649       -3.49253367456862        1.17232942932812
C            8.33300415147085       -2.76528697768996        0.43229393552214
C            6.09475230568991       -1.18672726877083       -0.54559375844136
C            5.35975412259403       -1.99891755265563        0.31743116620607
C            4.13318886960108       -2.49714570185235       -0.07399878586772
C            3.62043056320859       -2.19899977840108       -1.32639505358877
C            4.35256437177830       -1.40514248733498       -2.19261107857651
C            5.58231084138909       -0.90503188235845       -1.81076566367270
C            5.37850839374808        0.98555841413444        1.60262802649665
C            4.20608397052300        0.67855255530666        2.25936013523346
C            2.97808081585726        0.77444207808877        1.60358933625574
C            1.75068838721735        0.43629282641402        2.24335636316330
C            0.56880797709819        0.52820758108869        1.59198093956131
C            0.50605411190779        0.97321147398096        0.23824627502540
C            1.71196783958441        1.31569937879150       -0.42355133762113
C            2.95063890721518        1.21631140846419        0.25816007007933
C           -2.50816233653042       -0.55954427379807        0.09620191143189
C           -1.81114789227307       -1.57726080258344       -0.60654711855268
C           -2.30558407504882       -2.84238250952237       -0.68909943043819
C           -3.52050242578587       -3.17142080638417       -0.05437745547468
C           -4.21852735866053       -2.22173254055069        0.62604150361364
C           -3.75753833855073       -0.88262063697515        0.70907969493914
C           -7.67593117186088       -2.79499642474945       -0.48524179479300
C           -8.33607735286206       -3.74889487422065       -1.23479273876437
H           -9.31456040704115       -4.19862790122205       -3.08871800682013
H           -8.97035529703763       -1.92661978641992       -4.00113188376099
H           -7.81492466081627       -0.22080694502557       -2.67202997844466
H           -5.12118461982330       -0.87098461851822       -2.26340360260623
H           -3.87503371899070        0.90238371778690       -3.42289174995990
H           -4.11376743690149        3.26048464491879       -2.70775229892790
H           -5.63490216972161        3.82349165850575       -0.84862081265544
H           -6.90167814261483        2.04936884386884        0.29367968486016
H           -8.99467567378739       -1.00535070639582        1.12492837231515
H           -9.23391683944237       -1.02158271512886        3.57198109209964
H           -7.27534831381325       -0.52755170470081        5.00627368384652
H           -5.10445476307247       -0.00290109511732        3.96291439709038
H           -5.60188977458770        2.20892257030760        2.65080184578445
H           -4.65583304750169        4.45438997355702        2.85746946080336
H           -2.46176545359924        4.98378636940936        1.85615121130360
H           -1.22040206815084        3.25985515903603        0.62412755275495
H           -1.67276670338629        1.59744634723296       -2.28007161646581
H            0.41835534414543        2.18365446599731       -3.45000609848723
H            2.87083656928850        2.40189185505821       -3.44522324353316
H            5.01138315634721        2.21675195025800       -2.27441849863264
H            6.26405740599220        3.77775812063160       -0.63261089114423
H            8.47006645495704        4.29567818660543       -1.60456151395449
H           10.15033047366792        2.49791327568823       -1.86260099281932
H            9.60053562844118        0.19571061137140       -1.17726794482581
H            9.03143117179362        0.32124119445612        1.62865271719654
H           10.65759572745918       -0.97987337243334        2.92642014330855
H           10.80136108896207       -3.43114342896044        2.64536284896140
H            9.30454773059712       -4.56309571304765        1.03772757023034
H            7.68800304919406       -3.26329250511557       -0.27694630777359
H            5.75096927971755       -2.22174061580387        1.29925446002105
H            3.56594753127181       -3.11249056895712        0.60942010947280
H            2.65627637752347       -2.58319646152431       -1.62385665629793
H            3.96509407302990       -1.17431030329409       -3.17419522042690
H            6.15359787626220       -0.28705285328086       -2.48822149815864
H            6.32266953008762        0.89486612834978        2.12144682952408
H            4.23244879418090        0.35142778839735        3.28913816011750
H            1.78869160152896        0.09938905635361        3.26996077577081
H           -0.35644569197792        0.26675223482804        2.08523176723808
H           -0.86975353364333       -1.32421992404271       -1.07239336747380
H           -1.76622462412722       -3.60739927596823       -1.22895236262939
H           -3.88894603944575       -4.18576678818192       -0.10858921576523
H           -5.13556948991874       -2.48108743430252        1.13230416537226
H           -7.31810891211512       -3.04420716994758        0.50248169282653
H           -8.48278174013478       -4.73768916847188       -0.82433477378186
