  56
        -84.02708365
 C         -7.8708392133       -0.3065552823        0.1545292662
 C         -7.3179629172       -0.7479967690        1.3671877314
 C         -5.9636672848       -0.7486224818        1.5491913803
 C         -5.0989413811       -0.3076017281        0.5253815041
 C         -3.6986549963       -0.3022640465        0.6806653626
 C         -2.8726642027        0.1297200829       -0.3270408188
 C         -1.4040156687        0.1270416322       -0.1613957160
 C         -0.7103386148       -1.0896367425       -0.0941805930
 C         -1.3774423515       -2.3378256932       -0.2092678278
 C         -0.6978358139       -3.5129397851       -0.1178270440
 C          0.6941345751       -3.5135629939        0.1008476637
 C          1.3748877970       -2.3390983991        0.1932506549
 C          0.7092385285       -1.0901846830        0.0781252145
 C          1.4035217458        0.1262022568        0.1465473992
 C          2.8711456050        0.1290652432        0.3200393985
 C          3.4271960031        0.5861311048        1.5344317106
 C          4.7786885251        0.5907808822        1.7246548580
 C          5.6545645859        0.1447066123        0.7123204236
 C          7.0548065799        0.1372859156        0.8772548835
 C          7.8733360102       -0.3031389556       -0.1247823339
 C          7.3289946133       -0.7558140879       -1.3372062224
 C          5.9759015160       -0.7609159540       -1.5278491121
 C          5.1037075640       -0.3132060059       -0.5133608139
 C          3.7043497472       -0.3105482384       -0.6783665625
 C          0.7114174695        1.3425373905        0.0612237292
 C          1.3879004517        2.5904869393        0.0925976878
 C          0.7040372350        3.7654149149        0.0340806254
 C         -0.7023422064        3.7658272646       -0.0549883355
 C         -1.3869171758        2.5912180479       -0.1116969792
 C         -0.7111182305        1.3429771937       -0.0783711271
 C         -3.4371184261        0.5775384443       -1.5408086041
 C         -4.7899704488        0.5796486381       -1.7216141352
 C         -5.6584328486        0.1397797112       -0.7002100299
 C         -7.0596181755        0.1278469789       -0.8561119578
 H         -8.9438503982       -0.3133357223        0.0284657599
 H         -7.9743549731       -1.0875107045        2.1553606003
 H         -5.5326600456       -1.0882889840        2.4804378305
 H         -3.2746978644       -0.6415745288        1.6158777721
 H         -2.4444830055       -2.3386374357       -0.3751152092
 H         -1.2202386529       -4.4541515751       -0.2081752681
 H          1.2157995645       -4.4552387676        0.1904271850
 H          2.4418606954       -2.3413032568        0.3594894782
 H          2.7598272871        0.9250241763        2.3140750936
 H          5.1987311799        0.9382431660        2.6584408028
 H          7.4683698458        0.4851424698        1.8130445632
 H          8.9452275477       -0.3070917223        0.0082829950
 H          7.9909433822       -1.1007257609       -2.1182999927
 H          5.5516149557       -1.1093530999       -2.4590988668
 H          3.2876924218       -0.6558010723       -1.6142655190
 H          2.4657978167        2.5913483075        0.1609760135
 H          1.2331386019        4.7068848246        0.0589217291
 H         -1.2308074508        4.7076105043       -0.0813580258
 H         -2.4647807683        2.5924851501       -0.1806442168
 H         -2.7753794594        0.9106744622       -2.3277427600
 H         -5.2166311276        0.9188346698       -2.6551738164
 H         -7.4805070244        0.4697508571       -1.7911720947
