56
 energy: -83.964312872555 gnorm: 0.000025295243 xtb: 6.7.1 (edcfbbe)
C           -7.86440188716392       -0.44507957237523        0.12709249648867
C           -7.28720875897590       -1.15926426251753        1.18811040424923
C           -5.93020941968134       -1.18049384137834        1.35027114808900
C           -5.08642625047462       -0.48579909715164        0.45646171991225
C           -3.68737000047592       -0.49321006566069        0.59560743163721
C           -2.87031400568317        0.19822876455190       -0.27702244870263
C           -1.41847091030531        0.18948346320517       -0.13036757808164
C           -0.70824543545131       -1.05252694816902       -0.09727207577751
C           -1.35914953926492       -2.27622503279776       -0.26796414328946
C           -0.67676175599433       -3.48609840137335       -0.15590068041399
C            0.66964577093159       -3.48831611646919        0.13350666660655
C            1.35460350675741       -2.28052803713519        0.25227573186901
C            0.70630929436994       -1.05451814725498        0.08841248390432
C            1.41903966622386        0.18586015469095        0.12875309155520
C            2.87075613406881        0.19107913655895        0.27651508099552
C            3.47092394248878        0.90939465298291        1.34055511227423
C            4.82298215460935        0.91715422630622        1.50901678210639
C            5.67319365980307        0.22560521489071        0.61708676908418
C            7.07341253270726        0.22283319562093        0.75889727791871
C            7.86419519746831       -0.45823854620278       -0.12655491754744
C            7.28675134445614       -1.16633593114409       -1.19151163999706
C            5.92985002870594       -1.18463731860853       -1.35490258472166
C            5.08639606148864       -0.49298108260085       -0.45842227870184
C            3.68744378511244       -0.49735512950528       -0.59885389920530
C            0.71366572971350        1.42696206779870        0.03573296212213
C            1.38474777792684        2.65065709642501       -0.01883178718486
C            0.69191458210460        3.85996544433826       -0.02085424364487
C           -0.68399906308886        3.86117753027072        0.04035064560117
C           -1.37926344110222        2.65330550074705        0.03110984841690
C           -0.71062429100291        1.42860093686511       -0.03046066187006
C           -3.47016723711238        0.92296393633536       -1.33684938844144
C           -4.82236864835478        0.93372316705840       -1.50412690284238
C           -5.67294840012213        0.23903921289718       -0.61498817617936
C           -7.07329358502663        0.23910068814432       -0.75566368918267
H           -8.93867294417758       -0.43972183923121        0.01390923080080
H           -7.92650761766795       -1.69258366483352        1.87666930249720
H           -5.48074906767016       -1.73051048911842        2.16502762920965
H           -3.25045277035933       -1.02766625853091        1.42787889946860
H           -2.41361360063055       -2.28972021895014       -0.49753194506202
H           -1.21366815278778       -4.41400167247386       -0.28523761077266
H            1.20457080123753       -4.41805780741302        0.25775475135092
H            2.40901378829766       -2.29756009971722        0.48184740554819
H            2.82933368897232        1.42443134727013        2.04116685235993
H            5.26675519286318        1.45239256161542        2.33688636725709
H            7.51360997544438        0.77036577746060        1.58050109140574
H            8.93838519170723       -0.45501477491491       -0.01252474547764
H            7.92577939734455       -1.69736848081881       -1.88208159318744
H            5.48022994558075       -1.73004115744790       -2.17266349146905
H            3.25042072672762       -1.02677785403826       -1.43428330904744
H            2.46299804541535        2.66483864648336       -0.06387394684442
H            1.24202306025622        4.78852026509935       -0.05499493727698
H           -1.23222037348060        4.79062674507730        0.08006950831217
H           -2.45748939280647        2.66936018592640        0.07610030623840
H           -2.82833934296150        1.44058475474875       -2.03533738781594
H           -5.26597954231249        1.47386442704261       -2.32889282621692
H           -7.51332060074612        0.79124157723832       -1.57427279605585
