56
 energy: -83.964312617489 gnorm: 0.000068489785 xtb: 6.7.1 (edcfbbe)
C           -7.86297410403500       -0.45345087935860        0.11974960308323
C           -7.28484304394465       -1.16515252451726        1.18194353442145
C           -5.92800110003827       -1.18182722441807        1.34588182318895
C           -5.08533786075099       -0.48519284601530        0.45251512677557
C           -3.68646772314108       -0.48841529246397        0.59317444856554
C           -2.87020361859126        0.20353657757595       -0.27993388540301
C           -1.41859743966896        0.19735243144227       -0.13206182473429
C           -0.70736100636385       -1.04396202100071       -0.09271776842086
C           -1.35666492833093       -2.26889529251690       -0.26082368033749
C           -0.67379815322680       -3.47774132809545       -0.14136876011195
C            0.67153957191492       -3.47770137977050        0.15307024523063
C            1.35516428934446       -2.26891864938090        0.26880535827536
C            0.70664457958390       -1.04410379073436        0.09686082275706
C            1.41860735490637        0.19690830568047        0.13235934708626
C            2.87015677491608        0.20300899056556        0.28058241047864
C            3.47087594467785        0.92836382772410        1.33954028568217
C            4.82297008968205        0.93656985370535        1.50775302527019
C            5.67274027486025        0.23787881125088        0.62095594741008
C            7.07293329563436        0.23486257196812        0.76286987821430
C            7.86310477705996       -0.45406438999744       -0.11707372907594
C            7.28506162344194       -1.17016677682015       -1.17634006023981
C            5.92818700784057       -1.18810863912403       -1.33990679036531
C            5.08539401147485       -0.48831063507668       -0.44913297359326
C            3.68651883456946       -0.49227241698541       -0.58979543768744
C            0.71247642799021        1.43707081695509        0.03224597981452
C            1.38274499253272        2.66100324272982       -0.02709031405033
C            0.68912153966653        3.86978051486510       -0.03582963001191
C           -0.68690803769413        3.87031032672780        0.02338990065202
C           -1.38126982871650        2.66194107191891        0.01878341884028
C           -0.71173458396963        1.43740189149507       -0.03625719377877
C           -3.47100753493629        0.92498513702136       -1.34148645271599
C           -4.82311251420506        0.93231955294999       -1.50974019312654
C           -5.67276670750005        0.23668980022603       -0.62043855867372
C           -7.07293235645628        0.23247514867919       -0.76264858503554
H           -8.93714060697397       -0.45132806183539        0.00540950193769
H           -7.92329698979376       -1.69999269906840        1.87010483922572
H           -5.47776534046006       -1.72984488107334        2.16155437620627
H           -3.24900299348211       -1.02021755252977        1.42685448402272
H           -2.41024574172641       -2.28420561414628       -0.49430721647775
H           -1.20949386244563       -4.40658828769543       -0.26893546907109
H            1.20664464430197       -4.40649121382790        0.28349981307924
H            2.40871855791393       -2.28417079320499        0.50240971219626
H            2.82971721606628        1.44840794335534        2.03684439583595
H            5.26712322052867        1.47741556591813        2.33176609334677
H            7.51366199303410        0.78851828709379        1.58007812723531
H            8.93730484487195       -0.45086997854056       -0.00307422549126
H            7.92360401294263       -1.70743783886891       -1.86252189826639
H            5.47803309905536       -1.73955170765128       -2.15331242479005
H            3.24917283917531       -1.02719402180066       -1.42153804768235
H            2.46104042192270        2.67576336521608       -0.07070683570468
H            1.23861182021441        4.79856077858008       -0.07366460016121
H           -1.23580879393039        4.79956358791256        0.05803908848654
H           -2.45956055953674        2.67747911115641        0.06226319655528
H           -2.82993626046011        1.44258114290613       -2.04068951405623
H           -5.26735237537180        1.47003118808616       -2.33575825534548
H           -7.51373486699988        0.78268035628916       -1.58214306040368
