  53
  -85.6194510219000       0.320304140967487      !
 C          8.8143996515       -0.9256712772       -0.0644434192
 C          8.1838153005       -0.0837038430        0.8361722943
 C          6.8058128776        0.0235447943        0.8402254081
 C          6.0370308538       -0.7171697197       -0.0542510821
 C          4.5728491362       -0.6137492595       -0.0539268793
 C          3.7603350449       -1.7313488501       -0.1884507432
 C          2.3717217377       -1.6491453126       -0.1871616770
 C          1.6982932021       -0.4439816129       -0.0569643557
 C          0.2383715273       -0.3621601077       -0.0517899913
 C         -0.5256294460       -1.2320621110       -0.8310512351
 C         -1.9027753077       -1.1608925313       -0.8288720052
 C         -2.5548450741       -0.2226004886       -0.0317220514
 N         -3.9512352076       -0.1509142662       -0.0219783629
 C         -4.8157398481       -1.2153208702        0.1469431452
 C         -4.5358165975       -2.5530835096        0.3857865425
 C         -5.6021886187       -3.4167005596        0.5488455209
 C         -6.9189884391       -2.9668317347        0.4866201294
 C         -7.2035505288       -1.6325816072        0.2751188387
 C         -6.1485829917       -0.7454932253        0.1081623499
 C         -6.0756090522        0.6736750438       -0.1008838284
 C         -7.0346299147        1.6677637128       -0.2435819206
 C         -6.6150113585        2.9644169228       -0.4632465693
 C         -5.2596092300        3.2721683639       -0.5573296943
 C         -4.2868450429        2.3005992735       -0.4186819532
 C         -4.7021509403        1.0000275357       -0.1713966703
 C         -1.7993391097        0.6469356251        0.7520329169
 C         -0.4223780670        0.5818807355        0.7348056153
 C          2.4992619392        0.7069431734        0.0743161935
 N          2.0781357617        1.9913614804        0.1730830544
 N          2.9816694349        2.8424276434        0.2481534608
 S          4.5353984700        2.2176906097        0.2121410421
 C          3.9142517618        0.6093002125        0.0784763850
 C          6.6799524976       -1.5666424131       -0.9521174699
 C          8.0584349950       -1.6656673399       -0.9584782934
 H          9.8912076292       -1.0052467942       -0.0693419545
 H          8.7672435977        0.4922471343        1.5391540362
 H          6.3212500336        0.6695612562        1.5578197504
 H          4.2256399580       -2.7022074000       -0.2728688710
 H          1.8019021729       -2.5627165200       -0.2651367638
 H         -0.0350372630       -1.9469462793       -1.4749269804
 H         -2.4825297920       -1.8167132476       -1.4611242765
 H         -3.5190176754       -2.9092301008        0.4554954421
 H         -5.4098609441       -4.4635318339        0.7328581850
 H         -7.7247987738       -3.6736570127        0.6176794646
 H         -8.2235539775       -1.2801512688        0.2456331722
 H         -8.0852194399        1.4254129518       -0.1882084624
 H         -7.3442074534        3.7530740368       -0.5747051171
 H         -4.9616014671        4.2927225282       -0.7470872870
 H         -3.2402327888        2.5473627862       -0.5128556517
 H         -2.3006931341        1.3620078814        1.3864965201
 H          0.1521136065        1.2594584480        1.3457958156
 H          6.0947765646       -2.1316508273       -1.6630851071
 H          8.5453893262       -2.3208926274       -1.6657870891
  53
  -85.6191797380000       0.240374893625007      !
 C          8.8191153802       -0.6093563320       -0.6265371619
 C          8.1809469510       -0.7379449147        0.5956318076
 C          6.8023160645       -0.6735865465        0.6705822332
 C          6.0405683587       -0.4853558858       -0.4800559988
 C          4.5758171528       -0.4157381164       -0.4121079123
 C          3.7690317481       -1.0453748342       -1.3499655609
 C          2.3800504591       -0.9858304800       -1.2994878242
 C          1.7011588395       -0.2779184174       -0.3195953632
 C          0.2399540229       -0.2148121042       -0.2768936620
 C         -0.5264580703       -1.3176508777       -0.6554274604
 C         -1.9044540821       -1.2659610837       -0.6273945268
 C         -2.5532247490       -0.1036392312       -0.2172463555
 N         -3.9509498265       -0.0461511304       -0.1904798023
 C         -4.7895535334       -0.9755399582        0.3942502170
 C         -4.4770168702       -2.1195429927        1.1143832402
 C         -5.5218733822       -2.8681956469        1.6215412812
 C         -6.8487502497       -2.4899745621        1.4297882186
 C         -7.1651086037       -1.3388445551        0.7366332185
 C         -6.1321709938       -0.5700072427        0.2170268639
 C         -6.0928991891        0.6636340950       -0.5173573879
 C         -7.0745274176        1.5186044905       -1.0005793436
 C         -6.6863305689        2.6383628041       -1.7084906751
 C         -5.3398457917        2.9016016222       -1.9497997493
 C         -4.3450809315        2.0663380600       -1.4785693213
 C         -4.7279871908        0.9529613674       -0.7445196587
 C         -1.7952253626        0.9997676297        0.1678266799
 C         -0.4176491143        0.9431503572        0.1384290313
 C          2.4962928452        0.3836569818        0.6360633284
 N          2.0694808011        1.1379166683        1.6779494814
 N          2.9690839862        1.6209436951        2.3877804477
 S          4.5246678391        1.2290671910        1.9079209793
 C          3.9113715584        0.2947821403        0.5884032665
 C          6.6910606222       -0.3643720056       -1.7062200163
 C          8.0700839481       -0.4221793837       -1.7764449242
 H          9.8963532350       -0.6550847966       -0.6830134456
 H          8.7588053286       -0.8904410114        1.4949852688
 H          6.3119519689       -0.7931432436        1.6257393138
 H          4.2386710681       -1.6157225142       -2.1374981468
 H          1.8147157184       -1.4913032336       -2.0678565336
 H         -0.0383116605       -2.2326156747       -0.9569075154
 H         -2.4872374678       -2.1211979675       -0.9354958227
 H         -3.4519671474       -2.4110559798        1.2866551663
 H         -5.3043078808       -3.7649004905        2.1829792079
 H         -7.6369498357       -3.1036378059        1.8400533501
 H         -8.1925033730       -1.0353500645        0.6030725741
 H         -8.1185127853        1.3050545137       -0.8274562746
 H         -7.4335704792        3.3181796967       -2.0903772097
 H         -5.0669910485        3.7770337875       -2.5205820130
 H         -3.3056442820        2.2705804446       -1.6862503557
 H         -2.2940699608        1.8948994057        0.5072679860
 H          0.1593070705        1.8009413051        0.4447390269
 H          6.1115017439       -0.1992889364       -2.6027459503
 H          8.5629337475       -0.3179569790       -2.7319130723
  53
  -85.6190490020000       0.209318203847036      !
 C          8.7957156052       -0.6324994624        0.7480894133
 C          8.1074136810        0.0761695043        1.7187295932
 C          6.7349955453        0.2160624624        1.6356887044
 C          6.0307867015       -0.3457396812        0.5729399323
 C          4.5723513935       -0.2019766395        0.4922302551
 C          3.7630452623       -0.3294269147        1.6129353014
 C          2.3778956048       -0.2192723302        1.5495534940
 C          1.7045360990        0.0302335686        0.3632383765
 C          0.2447247552        0.1028499451        0.3020351694
 C         -0.4465505725       -0.3754920970       -0.8113501402
 C         -1.8248262720       -0.3612151444       -0.8454760042
 C         -2.5506003415        0.1333326845        0.2357755152
 N         -3.9492971984        0.1078995823        0.2162715850
 C         -4.7243166962       -0.9967884700       -0.0821019025
 C         -4.3354346368       -2.2933276118       -0.3868977602
 C         -5.3274034884       -3.2276960368       -0.6149928936
 C         -6.6767602769       -2.8908955222       -0.5351701819
 C         -7.0697049290       -1.6088495814       -0.2071348952
 C         -6.0907978976       -0.6522118494        0.0270836653
 C         -6.1336521638        0.7328682205        0.4045247451
 C         -7.1704263133        1.6256914432        0.6407770848
 C         -6.8581907447        2.9286938995        0.9729582003
 C         -5.5324556823        3.3485023824        1.0553856162
 C         -4.4838086074        2.4787972865        0.8246439102
 C         -4.7909575481        1.1616348217        0.5152276045
 C         -1.8680224952        0.6390065071        1.3396481430
 C         -0.4891023181        0.6227310658        1.3689238505
 C          2.5034009533        0.1811763540       -0.7867570399
 N          2.0856148985        0.4723009066       -2.0428770423
 N          2.9883039394        0.5830507073       -2.8908063992
 S          4.5367362560        0.3456636786       -2.2985582070
 C          3.9147466295        0.0611741892       -0.7101722075
 C          6.7320029127       -1.0549814925       -0.3991885644
 C          8.1036149706       -1.1991085315       -0.3089620844
 H          9.8677487586       -0.7423509311        0.8151242855
 H          8.6428674387        0.5233932593        2.5434335807
 H          6.2039536071        0.7838098204        2.3859194736
 H          4.2256807429       -0.5504238241        2.5633364277
 H          1.8084889775       -0.3649506328        2.4550604222
 H          0.1049301913       -0.7615261583       -1.6535434968
 H         -2.3497560095       -0.7246520079       -1.7159082540
 H         -3.2929367308       -2.5698588424       -0.4333256188
 H         -5.0496820312       -4.2428238233       -0.8579354083
 H         -7.4218587676       -3.6494055424       -0.7239185519
 H         -8.1151317244       -1.3514453766       -0.1281613146
 H         -8.1976774642        1.3038159506        0.5593123098
 H         -7.6493555742        3.6385831824        1.1633002060
 H         -5.3192710260        4.3785286807        1.3007576755
 H         -3.4604929838        2.8194268054        0.8716916009
 H         -2.4253443640        1.0262579285        2.1795176174
 H          0.0252822177        1.0306825714        2.2263818210
 H          6.1979445803       -1.5168106203       -1.2168523401
 H          8.6336628239       -1.7568469128       -1.0665052919
  53
  -85.6185597232000       0.124724000284965      !
 C          8.7346262919       -0.9334650111        0.7501885942
 C          8.1083914606       -0.1654475785        1.7178377274
 C          6.7506896265        0.0814192838        1.6393658367
 C          6.0004950515       -0.4311315018        0.5835473066
 C          4.5561948591       -0.1815396888        0.5045332198
 C          3.7381599831       -0.2561518820        1.6233585388
 C          2.3603168863       -0.0776546917        1.5526310589
 C          1.7047276251        0.1938437673        0.3610946869
 C          0.2466823375        0.2848192697        0.2873672455
 C         -0.4339353331       -0.1960640405       -0.8317445465
 C         -1.8118026968       -0.2131912522       -0.8647980380
 C         -2.5483233346        0.2516168147        0.2225561028
 N         -3.9439686751        0.1547995488        0.2127741481
 C         -4.6519773305       -0.9941312805       -0.0864158108
 C         -4.1854432635       -2.2661697539       -0.3857496185
 C         -5.1190362521       -3.2585466331       -0.6145525702
 C         -6.4862617753       -3.0020876741       -0.5405404549
 C         -6.9558954545       -1.7451042822       -0.2163017251
 C         -6.0364674362       -0.7313984371        0.0197028963
 C         -6.1614834387        0.6482430306        0.3988322166
 C         -7.2500202663        1.4764293842        0.6373436876
 C         -7.0165482839        2.7940756592        0.9763661858
 C         -5.7182707056        3.2917381763        1.0631188081
 C         -4.6190309933        2.4873783528        0.8298570169
 C         -4.8466074223        1.1560066568        0.5126849901
 C         -1.8776174431        0.7813200937        1.3223151237
 C         -0.4983113854        0.7955399593        1.3509900174
 C          2.5168005171        0.3135619894       -0.7833620250
 N          2.1214960084        0.6290174749       -2.0408421081
 N          3.0336871028        0.6973652923       -2.8831209449
 S          4.5647555858        0.3782167662       -2.2834842294
 C          3.9195746029        0.1219569944       -0.6996650116
 C          6.6392898989       -1.2017584163       -0.3851543710
 C          7.9955847269       -1.4527268186       -0.2994205842
 H          9.7945965195       -1.1284985285        0.8151005550
 H          8.6811646735        0.2438605105        2.5370139369
 H          6.2687386039        0.6937170423        2.3876837773
 H          4.1845365789       -0.4986681218        2.5763205335
 H          1.7799462727       -0.1935190432        2.4554234269
 H          0.1256473989       -0.5671662968       -1.6753031957
 H         -2.3292582462       -0.5856498350       -1.7359253839
 H         -3.1280989738       -2.4803349828       -0.4268292263
 H         -4.7802977942       -4.2564858031       -0.8511739155
 H         -7.1841438769       -3.8042770799       -0.7289958921
 H         -8.0151021181       -1.5508455937       -0.1403672372
 H         -8.2560303936        1.0938090938        0.5530031126
 H         -7.8490016709        3.4546722395        1.1681417898
 H         -5.5675676650        4.3311213635        1.3152731759
 H         -3.6178336060        2.8879499796        0.8814618000
 H         -2.4429746379        1.1555506017        2.1627388407
 H          0.0073766391        1.2165819051        2.2073419494
 H          6.0663891653       -1.6270479511       -1.1963193457
 H          8.4756721141       -2.0599991861       -1.0524106092
  53
  -85.6183995527000       0.105278761275505      !
 C          8.7831278413       -0.0481547118       -0.8699687699
 C          8.1658222745       -1.2715692863       -1.0709864045
 C          6.7982827616       -1.3957927089       -0.9122245267
 C          6.0287052574       -0.2959984689       -0.5403971215
 C          4.5735451040       -0.4168194654       -0.3901062188
 C          3.8007816715       -1.1309452225       -1.2953271787
 C          2.4138613901       -1.1913254239       -1.2060682382
 C          1.7031425386       -0.5559718575       -0.1987873678
 C          0.2405045751       -0.5312829736       -0.1690262889
 C         -0.4753268592       -0.4868205885       -1.3666766399
 C         -1.8493624724       -0.3800037095       -1.3662654846
 C         -2.5474257633       -0.3088463723       -0.1626164261
 N         -3.9343988827       -0.1252211136       -0.1760200463
 C         -4.8737541380       -0.8550914046        0.5252354154
 C         -4.7015340894       -1.9513147572        1.3580080574
 C         -5.8302741687       -2.5208510954        1.9160414681
 C         -7.1043000611       -2.0237135054        1.6504838502
 C         -7.2837146480       -0.9468819460        0.8055856513
 C         -6.1646851370       -0.3571015723        0.2331697008
 C         -5.9850627935        0.7354736897       -0.6816184123
 C         -6.8606016028        1.6183367083       -1.3002432813
 C         -6.3413491368        2.5978188735       -2.1228745108
 C         -4.9669460846        2.7146214509       -2.3176628080
 C         -4.0764146712        1.8479649386       -1.7137249337
 C         -4.5943935081        0.8435941771       -0.9085947354
 C         -1.8445969929       -0.3879103260        1.0369226614
 C         -0.4689617504       -0.4973963794        1.0315473211
 C          2.4686949070        0.1235610019        0.7692419492
 N          2.0144522800        0.7824711186        1.8629394832
 N          2.8918369427        1.3098922013        2.5687529225
 S          4.4565081224        1.1069849358        2.0070746948
 C          3.8806305973        0.1967867852        0.6542009843
 C          6.6589704395        0.9298993620       -0.3386003838
 C          8.0252639590        1.0520696309       -0.5055803020
 H          9.8509806806        0.0479342132       -0.9974455429
 H          8.7531828369       -2.1334581960       -1.3517074945
 H          6.3228978877       -2.3552031468       -1.0561928323
 H          4.2931130192       -1.6302435553       -2.1166440716
 H          1.8761321121       -1.7615030915       -1.9484449966
 H          0.0512154976       -0.5028874651       -2.3092086404
 H         -2.3929209790       -0.3482942716       -2.2987322042
 H         -3.7203172380       -2.3555421288        1.5561940632
 H         -5.7227243753       -3.3734710732        2.5703081111
 H         -7.9611462360       -2.4956852426        2.1079574085
 H         -8.2714510104       -0.5691594798        0.5881789685
 H         -7.9242781982        1.5403912849       -1.1331637133
 H         -7.0047288491        3.2934334588       -2.6149670940
 H         -4.5877161949        3.5033044580       -2.9507664913
 H         -3.0120077770        1.9610722234       -1.8543209528
 H         -2.3794786548       -0.3307727186        1.9728733635
 H          0.0668264324       -0.5365049016        1.9662678587
 H          6.0722609795        1.7979660465       -0.0754467965
 H          8.4991626306        2.0103844833       -0.3528432205
