  69
       -101.05379634
 C         -6.2779872749       -4.5986988906        0.9966692031
 C         -5.4133943783       -3.4005304624        0.7491601261
 C         -5.6414242329       -2.5746039938       -0.3425252376
 C         -4.8694205111       -1.4477177181       -0.5739099331
 C         -5.1531848024       -0.6086435628       -1.7852330706
 C         -3.8130087667       -1.1191064276        0.2925817373
 B         -2.8818356695        0.1077201741        0.0081465717
 C         -1.3353024285       -0.1344544121       -0.0525503029
 C         -0.8091051813       -1.3450399994       -0.5192142288
 C          0.5499907282       -1.5595329747       -0.5945612923
 C          1.4369653084       -0.5630997001       -0.1836357415
 C          2.8734873132       -0.7861995076       -0.2536982230
 N          3.2999215950       -1.9692759796       -0.7160907398
 C          4.6039688623       -2.1042991920       -0.7529117086
 Cl         5.2015591889       -3.6007968501       -1.3333505208
 N          5.5001776776       -1.2157795014       -0.3924557656
 C          4.9934620896       -0.0612140869        0.0573363511
 C          5.9285592772        0.9760781842        0.4750381994
 C          7.3029712228        0.7555103129        0.3851095690
 C          8.1860618686        1.7416184722        0.7791432960
 C          7.7091446105        2.9492789741        1.2653501361
 C          6.3433987186        3.1722857252        1.3585384771
 C          5.4532851178        2.1925351158        0.9653792158
 N          3.6909863882        0.1832147128        0.1395638632
 C          0.9331909309        0.6477454138        0.2942523425
 C         -0.4282264751        0.8539281070        0.3478122497
 C         -3.4023442728        1.5668978676       -0.2259141769
 C         -3.0165844023        2.2932999657       -1.3618576569
 C         -2.1603885348        1.6721071310       -2.4296417505
 C         -3.4367234530        3.6034859625       -1.5372236743
 C         -4.2358064364        4.2382950056       -0.6004407637
 C         -4.6862516091        5.6549038813       -0.7872232945
 C         -4.6232744335        3.5191510182        0.5225458423
 C         -4.2279638781        2.2060934084        0.7150640164
 C         -4.6618656815        1.4884082507        1.9597096614
 C         -3.5867093739       -1.9535725750        1.3978219415
 C         -2.4938743622       -1.6564324386        2.3860781822
 C         -4.3830966079       -3.0673977200        1.6147028456
 H         -5.7723994901       -5.3170717151        1.6375558677
 H         -7.2029423794       -4.2959577594        1.4890842597
 H         -6.5423201829       -5.0845512335        0.0597108775
 H         -6.4434864844       -2.8158008850       -1.0265362523
 H         -6.0948151163       -0.9016248671       -2.2435209013
 H         -5.1995810332        0.4434807478       -1.5191989826
 H         -4.3626297391       -0.7296760547       -2.5250169085
 H         -1.4912688665       -2.1226218738       -0.8324283919
 H          0.9517092128       -2.4913707162       -0.9603959990
 H          7.6532469476       -0.1911580941        0.0049377593
 H          9.2498103117        1.5717995321        0.7074814394
 H          8.4028379985        3.7179800233        1.5729265790
 H          5.9753501330        4.1133821198        1.7390822155
 H          4.3874916367        2.3468127608        1.0303609524
 H          1.6275068528        1.4111930172        0.6083125431
 H         -0.8123129811        1.7968455618        0.7107464965
 H         -2.2687844198        0.5925252955       -2.4469233819
 H         -1.1108166308        1.9019380982       -2.2466273196
 H         -2.4246147764        2.0705962074       -3.4074938662
 H         -3.1314799280        4.1389948805       -2.4257310918
 H         -4.2397651518        6.0914044372       -1.6771204556
 H         -4.4091319619        6.2591604217        0.0755674761
 H         -5.7706294349        5.6968579402       -0.8869377255
 H         -5.2524120380        3.9971046650        1.2608594896
 H         -5.0619218124        0.5082081683        1.7158387370
 H         -5.4199185525        2.0605514711        2.4894129795
 H         -3.8146946302        1.3439241284        2.6294431160
 H         -2.7787402670       -1.9950354060        3.3804922400
 H         -1.5818945670       -2.1811220384        2.1015778967
 H         -2.2712686828       -0.5949043706        2.4242052730
 H         -4.1950130300       -3.6895807148        2.4787084448
