69
 energy: -101.025473582071 gnorm: 0.000070424649 xtb: 6.7.1 (edcfbbe)
C           -6.56270275877556       -4.40412635949562        0.65341293327145
C           -5.58879563481597       -3.28585442707434        0.47404750085244
C           -5.66476103987734       -2.44629370165319       -0.63420486453674
C           -4.76197660856255       -1.41755929552651       -0.82568889013553
C           -4.85880676805799       -0.56923070959200       -2.05264668288214
C           -3.75754918548807       -1.16348664416788        0.13904048711314
B           -2.81719031874513        0.08207803723078       -0.00611052830952
C           -1.29577230983444       -0.15163931119455       -0.06047968536894
C           -0.75354931710983       -1.41893537390670       -0.37525110855947
C            0.59605744723665       -1.62852621069049       -0.42989860266332
C            1.50484262820564       -0.58358540878403       -0.15454960076718
C            2.90423951355580       -0.79949867482980       -0.19896621370805
N            3.37767909605243       -2.05186985208938       -0.52244048826115
C            4.66818060396265       -2.14350842467156       -0.54179472057375
Cl           5.29915482924445       -3.70923368553869       -0.95205096407088
N            5.57890576745710       -1.23147057899454       -0.29769135627100
C            5.04215314334005       -0.01635806028577        0.02153382899018
C            5.96491488724201        1.06793963180792        0.31638721099057
C            7.34400984068847        0.85318310349109        0.26993492572539
C            8.21720436058139        1.88551939180044        0.55142894220492
C            7.72985986478972        3.14140180978982        0.88171044359024
C            6.36067775666726        3.36228826546414        0.92985429827293
C            5.48163660210441        2.33583144459025        0.64997643384862
N            3.75251759692534        0.20458347798037        0.07092575430798
C            0.97246976918889        0.68443307060307        0.16687371675205
C           -0.37771196845954        0.89109436204614        0.20300576516268
C           -3.35000716550438        1.55347184474750       -0.09709588941996
C           -3.07395384253984        2.36919133807078       -1.21626810399534
C           -2.17965413456838        1.91174419964719       -2.32865497657439
C           -3.65673321117875        3.62116907497399       -1.32111093149606
C           -4.48207488171510        4.13002200411042       -0.32412207087519
C           -5.08898983770875        5.48994364575123       -0.44105148697484
C           -4.72880899930328        3.33784839479037        0.79470464039858
C           -4.16375129498148        2.08453563600073        0.93271711888461
C           -4.42504511713573        1.28927561471326        2.17125444914207
C           -3.66030246797088       -2.03497289099709        1.24622702611332
C           -2.59262862577917       -1.87790334075863        2.28633448327021
C           -4.58247788387110       -3.05517681478049        1.40661835461368
H           -6.14422450336255       -5.19348138048661        1.27335168993963
H           -7.46187070455758       -4.02911342994061        1.14551318445661
H           -6.85916268729769       -4.82089749781047       -0.30680049945902
H           -6.43895013591511       -2.61491474708840       -1.36951322768562
H           -5.71946952989617       -0.85102769710660       -2.65391957149214
H           -4.94567020355800        0.48120126221053       -1.77857776936691
H           -3.96038229519792       -0.67631845122979       -2.65881214294726
H           -1.42326904627494       -2.23699336501798       -0.59754459144175
H            0.99912004267813       -2.59795139170361       -0.68441800598174
H            7.70454464418593       -0.13061609983925        0.01080987527239
H            9.28269263495180        1.71165235970275        0.51361207283238
H            8.41532475787875        3.94652360960684        1.10112727836428
H            5.98039671468614        4.34000546510235        1.18726641922352
H            4.41412656535892        2.49009157688504        0.68302883393383
H            1.66281978574709        1.48636393611761        0.38321928343095
H           -0.75460850308122        1.87040719069971        0.45973906151464
H           -2.08640746740794        0.83059181882772       -2.34721589424244
H           -1.17945851032600        2.32459162506195       -2.19355868043490
H           -2.55647177266427        2.26081870965920       -3.28823547459631
H           -3.45405694144228        4.22121434775795       -2.19727171974483
H           -5.07187707486786        6.00624542870671        0.51691150139874
H           -6.13202202538437        5.39964252021893       -0.74879518899574
H           -4.56693878114801        6.09135457542632       -1.18109938912401
H           -5.36578357444456        3.72100033393154        1.57949146880465
H           -4.84309027119658        0.31714693382914        1.91395827597677
H           -5.11670113658220        1.80946567987572        2.82909512326813
H           -3.49606513591611        1.11311048364559        2.71158767792398
H           -2.98574904734452       -2.11003573332569        3.27436872592745
H           -1.77387016492703       -2.56897951646518        2.08296397245876
H           -2.17969135135564       -0.87420033123001        2.28635897256437
H           -4.50880710169342       -3.69694102978464        2.27353585425597
