69
 energy: -101.098419732038 gnorm: 0.000118797121 xtb: 6.7.1 (edcfbbe)
C           -6.25036390858430       -4.61351425475827        0.98394966199026
C           -5.39378377959328       -3.40702726946226        0.74457634359023
C           -5.61777691351889       -2.58618288736676       -0.35282879764267
C           -4.85442099313609       -1.45324548801026       -0.58282643867122
C           -5.13598305049176       -0.62475464791582       -1.80260022193016
C           -3.80903498939880       -1.11028901451250        0.29492698553141
B           -2.88320243171155        0.12121463125099        0.00538298459904
C           -1.33254685410876       -0.12771746628841       -0.05709099115872
C           -0.81101637612736       -1.34089741817880       -0.52460388896463
C            0.54680764297032       -1.56616292621848       -0.59143885652776
C            1.44151433852536       -0.57709991986896       -0.17324154934875
C            2.87334790810694       -0.80792893905807       -0.23442922797571
N            3.30096100828800       -2.00403423418673       -0.67316055147393
C            4.60275291538550       -2.13859212160986       -0.69834197945984
Cl           5.20036503392830       -3.65418859587718       -1.24633347610454
N            5.50462998659778       -1.25184897001601       -0.35511672880163
C            4.99859438913399       -0.08257142801742        0.06902426324863
C            5.93516499776975        0.95981834878702        0.46628535505195
C            7.30949981447178        0.71491249473212        0.44522349328677
C            8.19298501198179        1.70735714220288        0.82311812323976
C            7.71729452189231        2.94797889887472        1.22206762882463
C            6.35277495095666        3.19715339141792        1.24423416209122
C            5.46225667081189        2.21017509996996        0.86956466130679
N            3.69755025815481        0.16468441265953        0.14209217571966
C            0.94070248522875        0.63758133241519        0.30400898238377
C           -0.41937705416812        0.85284541985342        0.35131115274103
C           -3.40665322039228        1.58019977648010       -0.22759821068242
C           -3.01899994999390        2.31808120594147       -1.35655168475620
C           -2.16179381616510        1.71647576491997       -2.43545740832512
C           -3.44512144864219        3.62860840867232       -1.52447472736108
C           -4.25449666030079        4.25287116004075       -0.58997542383277
C           -4.71607277626962        5.66734196804471       -0.77086910648758
C           -4.64228787325044        3.52315548245003        0.52677299122443
C           -4.24148123004910        2.21102001157881        0.71479422651587
C           -4.68149361897197        1.49051613939040        1.95600307138576
C           -3.58699687063496       -1.93883573021296        1.40565041785697
C           -2.51429585983001       -1.63183837481849        2.41347830265112
C           -4.37517395815051       -3.06108034645036        1.61784503614778
H           -5.77517045935794       -5.29599292529897        1.68490084610041
H           -7.21254210574303       -4.31175288356671        1.40016534929320
H           -6.44210867561274       -5.14138520220893        0.05138940547543
H           -6.41137230854356       -2.83828033419338       -1.04348943794867
H           -6.04427057207073       -0.96384779653620       -2.29568251836413
H           -5.24953832789193        0.42350722991502       -1.53755744670002
H           -4.31355750551335       -0.70024749784320       -2.51283962760491
H           -1.49368398137571       -2.11550327905193       -0.84352779887033
H            0.94159973008529       -2.50207160855605       -0.95658669076647
H            7.65986332649323       -0.25627615619004        0.13180113097069
H            9.25517541588504        1.51467692010789        0.80696822199274
H            8.41093955394791        3.72170271980724        1.51558893553808
H            5.98449023316488        4.16322505734834        1.55491473763203
H            4.39807525691989        2.38456164603518        0.87889429763699
H            1.63812649245244        1.39596563472565        0.62422286330333
H           -0.79572513164037        1.79792613378377        0.71562871833644
H           -2.17485191778036        0.63178744593760       -2.39916873176683
H           -1.12911321747549        2.04795281433664       -2.32139145292114
H           -2.50805652202631        2.04007849986506       -3.41592406969219
H           -3.13782527690790        4.17039756988108       -2.40909306870752
H           -4.29831559663325        6.10158070699629       -1.67601042762938
H           -4.41488504178487        6.27723677771151        0.08044768384353
H           -5.80345030391053        5.70459793444627       -0.83699405965634
H           -5.27832722894301        3.99321632812190        1.26487810369420
H           -5.12250041502095        0.52857671169776        1.70672759681426
H           -5.41202031164855        2.08139539437513        2.50397507451409
H           -3.83139413665412        1.30558221936730        2.61140314153111
H           -2.86556470940799       -1.85651754759772        3.41944814310734
H           -1.63534314199884       -2.24873002578328        2.22265309774735
H           -2.21187090115800       -0.59028379325317        2.37083152593219
H           -4.18698873965893       -3.67844955307172        2.48618708995548
