141
 energy: -221.385071368153 gnorm: 0.000080899715 xtb: 6.7.1 (edcfbbe)
C          -11.67331337782131        4.05769227713556       -1.01347978253572
C          -10.34341637644445        3.66429834144013       -1.68375927588409
C          -10.17183063865851        4.42419268317181       -3.01266358195526
C           -9.20635777747648        4.04030884002079       -0.75638042830757
C           -9.03444382810475        5.36627917598897       -0.38428192933667
C           -8.02615918935955        5.76097505855923        0.47564961514933
C           -7.16425674263553        4.80924330177671        0.99619478930377
C           -7.31075261567187        3.48603157415369        0.64540000622427
C           -8.31922751595790        3.08420773202978       -0.24098512806471
N           -8.43387069165159        1.75217673483704       -0.58142220183246
C           -7.51216133192246        0.81729344316169       -0.02768034476126
C           -6.22195133167454        0.71037661026234       -0.53913600884215
C           -5.34078256298573       -0.19177760153652        0.01409972623594
C           -5.68071070634132       -1.02651946750263        1.09542535051126
C           -7.01294646653436       -0.92219854671966        1.56066722496074
C           -7.90825792695042       -0.00717383728523        1.01823978330797
O           -7.54352514856482       -1.68553211944860        2.55822720008651
C           -6.83822138775748       -2.68755268301342        3.14800022252249
C           -7.50586411144037       -3.47074695580349        4.08402225371880
C           -6.82990317238857       -4.50908353135675        4.70552251975923
C           -5.50289796092503       -4.77068204758511        4.40621641617642
C           -4.84339850477067       -3.97464959605911        3.47368480922703
C           -5.49507549466878       -2.91571332280833        2.82482952839877
B           -4.76735841965048       -2.04502446118850        1.80322371431525
C           -3.26595199667061       -2.37693130128371        1.67633547903988
C           -2.31879573120913       -1.66859115068661        0.92783569212662
C           -0.99966587517576       -2.06611196026044        0.80449476117843
C           -0.01961670845582       -1.24715911244145       -0.01104636135748
C            0.96132784300282       -2.11900100125159       -0.76770049670695
C            0.52843890298540       -3.29352553449922       -1.38293359829129
C            1.41832549361416       -4.05385632755896       -2.11325931674321
C            2.75488521910172       -3.67106491710868       -2.22040842749511
C            3.23686642481062       -2.50551445412596       -1.58446138568407
C            2.28515936389442       -1.74078142058603       -0.89967048456473
B            4.74540168233485       -2.20176993674559       -1.70086305604636
C            5.65910233744866       -1.15042595475444       -1.04278017170639
C            5.30555711796579       -0.22927089797401       -0.03834890529662
C            6.19387576334309        0.68289170628735        0.48608193930704
C            7.50619642787167        0.71366200838012        0.02286498716778
N            8.43577873609444        1.65822320513176        0.54579733586637
C            8.74883909227461        2.77476049146238       -0.20190818461922
C            8.11601111443541        2.97907480080980       -1.43545229239753
C            8.41501010229119        4.07757348429910       -2.20952552864386
C            9.34858834214690        5.00066803412976       -1.76667089423085
C            9.96014082852598        4.81365312902809       -0.54079374388391
C            9.67780988240900        3.71716600373277        0.26198574247679
C           10.36191946209584        3.57724789986899        1.60618374465102
C           11.88436365246656        3.50708858579933        1.38287563459354
C           10.00609972642677        4.80361209018078        2.46772335018739
C            9.92344293445663        2.32456787969129        2.33619876781605
C           10.45167059638079        2.03921060633050        3.58748893624481
C           10.10150349959105        0.89962363885038        4.28798429960960
C            9.20661655718887        0.00346618602559        3.72610597326560
C            8.66630900023570        0.25998932214743        2.48607538318473
C            9.00303173700008        1.42364354718643        1.78126648845918
C            7.91317918056542       -0.19040128392818       -0.95061617051020
C            7.00864465404300       -1.11123760188551       -1.46706576146672
O            7.55092114903947       -1.95340515370922       -2.39229338127485
C            6.84138533184972       -2.98080109674837       -2.93079918541211
C            7.51932193300931       -3.84096819846746       -3.78871477722944
C            6.83929192946671       -4.90583376726469       -4.35871759322858
C            5.49895109617441       -5.11985975894276       -4.08201921012708
C            4.83006230078009       -4.24798860626112       -3.22706562431626
C            5.48428574429978       -3.15783016101810       -2.63495562086362
O            3.52062092052034       -4.50304932355803       -2.98191158842313
C           -0.70616077551775       -0.31737907143456       -0.99251456879410
C           -1.49408592510298       -0.64014044371845       -2.07693340496868
C           -2.04663993437952        0.38810586530836       -2.82845783892414
C           -1.80696395589684        1.71460532227350       -2.50277406624959
C           -1.00551005165430        2.04501738288089       -1.42221458920947
C           -0.45448258859077        1.02295115519233       -0.66681296585660
C            0.39800576415002        1.06090120807169        0.50985961052949
C            0.93965514434641        2.12970177979594        1.20506408189805
C            1.74571830169870        1.86917789634890        2.30117039638146
C            1.99914402966928        0.56579494838571        2.70146698916245
C            1.45471552527716       -0.50882167569804        2.01153811481745
C            0.66252013952889       -0.25591415232799        0.91169866027497
C           -0.56851951334966       -3.20266667520671        1.48833122369625
C           -1.45442753180686       -3.90598428523347        2.27823561858816
C           -2.78518782504299       -3.50239823120097        2.38126654007543
O           -3.54599247740950       -4.27125950111652        3.21113357471528
C           -9.41926941663869        1.29808790992061       -1.43384871406648
C           -9.46509317790735       -0.06027985439432       -1.77559769473972
C          -10.44387751378271       -0.54584535910009       -2.61312378176764
C          -11.39613688354274        0.31521766230522       -3.13420330288669
C          -11.34180780815526        1.65988388185278       -2.81698593181374
C          -10.36605343016627        2.17842380910100       -1.97707802755341
H          -11.78817461905900        3.51907303113335       -0.07481199832309
H          -12.51640147115024        3.81492502580761       -1.65402763114883
H          -11.70080606365271        5.12309034910760       -0.80320884397812
H           -9.23147378594595        4.14136827584205       -3.48189983242913
H          -10.98114157207717        4.19223556412391       -3.69904651496653
H          -10.16360854416992        5.49768348051574       -2.84682002860775
H           -9.70509788541796        6.11809618411258       -0.77161599355025
H           -7.91957798778248        6.80118204035346        0.74252868791520
H           -6.37910261154885        5.09753272234003        1.67844218132314
H           -6.64462648713906        2.74561091698153        1.05873995907130
H           -5.92389098001876        1.33629467895386       -1.36778536394622
H           -4.35433233046388       -0.26832107302773       -0.41323748152321
H           -8.91175954620212        0.04751348045359        1.41164711338787
H           -8.53946878738278       -3.26132152983794        4.31025386711498
H           -7.34402736130155       -5.12134253329213        5.43037974726664
H           -4.97034373387366       -5.57818416342192        4.88333005121300
H           -2.63440321127340       -0.76648791324626        0.43054715245883
H           -0.49937670644438       -3.61033366832744       -1.28919062403705
H            1.09847953914006       -4.95525807715395       -2.61360372549424
H            2.60179966779563       -0.81119906507938       -0.45701153914383
H            4.30061904378494       -0.24170697106061        0.35035019371733
H            5.88271883688900        1.37924547635630        1.25128673694323
H            7.38292709434853        2.26604842260103       -1.77739129326788
H            7.91802755275629        4.21475509200254       -3.15780583648854
H            9.59356380158431        5.86325643705318       -2.36710508062761
H           10.67645667733931        5.54786406401389       -0.20483508964100
H           12.41129771913985        3.42432674969770        2.32919254236467
H           12.12969726799209        2.63785507610867        0.77571624792031
H           12.24187222340299        4.39571748387011        0.87048146665757
H           10.32287188656487        5.72270440626207        1.98310135449354
H           10.48849498045197        4.74751979229626        3.43937701759760
H            8.92946098636360        4.84885128782001        2.62022203666976
H           11.15943562309580        2.72114763623123        4.03364939528305
H           10.52961800333796        0.70959273060724        5.26018233472150
H            8.93190858542267       -0.89753811675477        4.25316311981995
H            7.97736826308926       -0.44320042434172        2.04604132887020
H            8.93084385214543       -0.19033142667914       -1.30992301393825
H            8.56342543619872       -3.66791900694454       -3.99676218539927
H            7.36090354846988       -5.57714265310376       -5.02341481666904
H            4.96326958248183       -5.94897909465000       -4.51667900879284
H           -1.68892579568899       -1.67064927798830       -2.33312415907608
H           -2.67395179996989        0.15106092451680       -3.67545977701484
H           -2.25043845830984        2.49862093982248       -3.09968587715096
H           -0.81885220958396        3.07884727402282       -1.17160792663557
H            0.74240667791454        3.14569796702967        0.89635632893080
H            2.18224266993540        2.69015822639788        2.85171899563765
H            2.63067492200275        0.38366650144371        3.55886145605192
H            1.65931574672945       -1.52131352713988        2.32558428285960
H            0.45536298414325       -3.53408734690536        1.40235294898544
H           -1.13508660966873       -4.77628716961163        2.83120031412201
H           -8.71964346751232       -0.73024130842726       -1.37801372141934
H          -10.46284604756446       -1.59617508677744       -2.86110067415664
H          -12.17047326487129       -0.05526974216331       -3.78818789862796
H          -12.08371549520320        2.31963664227530       -3.24046067810673
