141
 energy: -221.385092703168 gnorm: 0.000161004890 xtb: 6.7.1 (edcfbbe)
C          -11.90986098172559        3.56072258411462       -1.36668762506661
C          -10.39419292694536        3.60959162161512       -1.63688579456615
C          -10.05473801855529        4.80079170118180       -2.55261874461450
C           -9.67017832191115        3.79193472140493       -0.31888324251662
C           -9.91897520704804        4.91972018647307        0.45090290186622
C           -9.27229142747220        5.14350734798765        1.65239890695597
C           -8.33794750145907        4.22549643670452        2.10414332861195
C           -8.07181786019316        3.09640750507667        1.36276349301472
C           -8.73855528129395        2.85655157993210        0.15376372723494
N           -8.45675505048521        1.71103944218535       -0.56139821549683
C           -7.52569467338780        0.77397855699728       -0.02671970085031
C           -6.21775181741787        0.72806151115463       -0.50043493223981
C           -5.32818428762163       -0.17518844224078        0.03730427329057
C           -5.67674058261766       -1.07191618190408        1.06514346222017
C           -7.02275158763339       -1.01969101345793        1.49852607287108
C           -7.92822149209682       -0.10683813266242        0.96942007799369
O           -7.56061309623033       -1.84032749376303        2.44537961628310
C           -6.85020382750502       -2.85856083043671        2.99983320213037
C           -7.52455398733258       -3.69972401759824        3.87916738457306
C           -6.84326725333265       -4.75458418250942        4.46589789203125
C           -5.50517075173027       -4.97733134234647        4.18517097028692
C           -4.83977625744500       -4.12437630534034        3.30878673262585
C           -5.49544369808278       -3.04494699030577        2.69892415040883
B           -4.76058042263765       -2.11008278898765        1.74065024042332
C           -3.25297562426244       -2.41761687284565        1.62286680244365
C           -2.30372509941502       -1.66697826792846        0.91915063481749
C           -0.98104034655575       -2.04935781016540        0.78835687390945
C           -0.00106147370545       -1.19457763734394        0.01051853194900
C            0.97005680490611       -2.03550124104697       -0.79315339434608
C            0.52667413398524       -3.18069301401769       -1.45444885659598
C            1.40641641967501       -3.91147410379893       -2.22584250191829
C            2.74294882886673       -3.52796106857394       -2.33082348396298
C            3.23530949511917       -2.39153554762380       -1.65150263699253
C            2.29357117486467       -1.65533893256944       -0.92290406000516
B            4.74292084211581       -2.08513286083723       -1.77473616840547
C            5.66672035908881       -1.06130272853245       -1.08754347194317
C            5.32752310441972       -0.17939928866744       -0.04375634235282
C            6.22364317860054        0.71138891823972        0.50381620547404
C            7.52956387525795        0.75927910554080        0.02459563883206
N            8.46809355948962        1.68241373799639        0.57001014808912
C            8.76016736909562        2.83336946475055       -0.13233995328617
C            8.09258647810338        3.09489567228258       -1.33640388445384
C            8.36910004756520        4.22954829489859       -2.06532612939040
C            9.31497729306017        5.13177654351830       -1.60577229877798
C            9.96217781626452        4.88700091491854       -0.40868856142244
C            9.70281350822859        3.75326248128161        0.34878045738687
C           10.42786130845182        3.54803611226032        1.66283011571283
C           11.94210951490784        3.48321266012171        1.38791458190180
C           10.10567699848633        4.73354675608448        2.59206879127039
C           10.00681124852375        2.26359869830341        2.34658003586521
C           10.57004758530361        1.91942555942683        3.56743287157597
C           10.23621834357960        0.74937960520926        4.22436968578208
C            9.32141306976081       -0.11735455018694        3.64854673799982
C            8.74660243411884        0.19727881073880        2.43775672530702
C            9.06843471913238        1.39066559039882        1.77716981028708
C            7.92275766380692       -0.10665696205805       -0.98820292100167
C            7.01057359768778       -1.00668221829681       -1.52761495853982
O            7.54012559574564       -1.81270924719736       -2.49151427304043
C            6.82205629437019       -2.81671558329422       -3.06162196444985
C            7.48795613467012       -3.64306824579229       -3.96124243646818
C            6.79903371764597       -4.68321581843956       -4.56508511303225
C            5.46151606233865       -4.90558524990264       -4.28141517066136
C            4.80475089033515       -4.06748444089063       -3.38436435943024
C            5.46827191366729       -3.00330025931906       -2.75640331896437
O            3.49755604857640       -4.32934644960918       -3.13496629942315
C           -0.68547069151861       -0.21622929021443       -0.92409935044827
C           -1.48242349496036       -0.48371459989195       -2.01702159554415
C           -2.02848079376933        0.58162321110161       -2.72000631138526
C           -1.77263225788269        1.89030332640996       -2.33909652711727
C           -0.96205971103235        2.16545208936700       -1.24990383547825
C           -0.41834730387015        1.10601743857509       -0.54214422907801
C            0.44026183552506        1.08427981464018        0.63044920717946
C            0.99552253456603        2.11681019374100        1.36835472459862
C            1.80414535834127        1.80148529207673        2.44807044397540
C            2.04681767163879        0.47963046338541        2.79000193341405
C            1.48908440346298       -0.55892909116641        2.05672625237070
C            0.69369577900181       -0.25136632546097        0.97327861262187
C           -0.54695968428630       -3.21287918175757        1.42347667283127
C           -1.43405865006265       -3.95795812389930        2.17248740118272
C           -2.76951782968096       -3.57121384505086        2.27898755454733
O           -3.53244066942400       -4.38708053486743        3.06050835508288
C           -9.05847352358825        1.43872262684157       -1.77230883846218
C           -8.74774578885784        0.24946632337873       -2.44551258773801
C           -9.32464007124551       -0.04633794870802       -3.66006182890763
C          -10.23004126061148        0.83580566620424       -4.22729067590022
C          -10.55228540911829        2.00232590082146       -3.55837689594949
C           -9.98692050869324        2.32753610093028       -2.33333667333922
H          -12.14359246022851        2.71655298849281       -0.72080445745652
H          -12.46509394850584        3.44762030958605       -2.29349251812984
H          -12.24535467037521        4.47063958274309       -0.87726238559307
H           -8.98283754543681        4.83086720598206       -2.73856053233038
H          -10.56649110205608        4.71404685332539       -3.50683548061188
H          -10.34961382086539        5.73958296222775       -2.09257682275463
H          -10.63662408502099        5.64945802038933        0.10809566383068
H           -9.49140744200483        6.03009552323260        2.22732906929133
H           -7.81497657339150        4.39036102164773        3.03385509044242
H           -7.33887948962222        2.38638330543866        1.71131655627314
H           -5.91087651721414        1.40569636272073       -1.28392625813748
H           -4.32646161872572       -0.20033688024356       -0.35908507503764
H           -8.94296011401689       -0.09504129828687        1.33667835235967
H           -8.56692507472194       -3.52012238402771        4.09034315223971
H           -7.36212553140356       -5.41128027415727        5.14714022306685
H           -4.96867443593630       -5.79884515894036        4.63308595549918
H           -2.62159197681263       -0.74552414844591        0.46055675454987
H           -0.50133731055948       -3.49789807495722       -1.36442515518908
H            1.07855869794703       -4.78976820413757       -2.76089143308703
H            2.61763433448249       -0.74693833768884       -0.44313632792226
H            4.32777601587366       -0.20616284879857        0.35744651970231
H            5.92345778518986        1.37760841646062        1.29961223529850
H            7.35065712896296        2.39732273311481       -1.69100975503175
H            7.84523515428568        4.41108627383658       -2.99142484185724
H            9.54252742526822        6.02240904094744       -2.17109439393476
H           10.68886885592401        5.60466926493219       -0.05951031291319
H           12.49826295378550        3.35270668141277        2.31188877142819
H           12.16351571549641        2.64348984955120        0.73197487593268
H           12.28768459178733        4.39430654101954        0.90775499624388
H           10.61889352482035        4.63040836925834        3.54385722001494
H            9.03474490740097        4.77490521929991        2.78132693088518
H           10.41095565733223        5.67347078539463        2.14123739639926
H           11.29301983289210        2.57828168229165        4.02377016434209
H           10.69195360316801        0.51341345004251        5.17367543903078
H            9.05805990629550       -1.04061521686685        4.14180015696641
H            8.04158663239145       -0.48244127007772        1.98640760044602
H            8.93551860549048       -0.09313604785135       -1.36084963582321
H            8.52989841908569       -3.46351703628347       -4.17454149283889
H            7.31128752570130       -5.32840081024444       -5.26213707794974
H            4.91874391994746       -5.71550194576285       -4.74266890409647
H           -1.68896823777474       -1.50021034071676       -2.31651572161125
H           -2.66314790880478        0.38796299417758       -3.57256134540075
H           -2.21081667377349        2.70385253930394       -2.89925604362986
H           -0.76292024878997        3.18545982505089       -0.95602150976547
H            0.80649175587021        3.14700300615583        1.10488540996758
H            2.25080804034817        2.59364707680727        3.03169577408510
H            2.68047238711897        0.25445794669447        3.63552860417499
H            1.68639534956605       -1.58571943593681        2.32560678577562
H            0.47983322444572       -3.53315772545887        1.33055639623493
H           -1.11287520923724       -4.85014004320944        2.68826250541945
H           -8.04967853773809       -0.44183481875842       -2.00097075107291
H           -9.07013244007649       -0.96679783200664       -4.16309436887119
H          -10.68719901521342        0.61468249784381       -5.17948988953285
H          -11.26755655778905        2.67368892056100       -4.00859956051000
