  128
       -198.62995823
 C         -8.5901526397        5.0260341097        1.3791568994
 C         -7.8078848276        4.3121024157        2.4906446359
 C         -8.7817569423        3.7598092267        3.5410805456
 C         -6.9019816542        5.3413146502        3.1714527234
 C         -7.0229569840        3.1613701481        1.8831106611
 C         -5.6439628789        3.0423638896        1.9790254231
 C         -4.9819036787        1.9879923361        1.3844786504
 C         -5.6661496646        1.0190417395        0.6534629972
 C         -7.0588409721        1.0782507844        0.6017548100
 C         -7.6954907101        2.1509190517        1.2077494820
 C         -7.8957909864       -0.0006222317       -0.0555873319
 C         -8.7181564156        0.6346435462       -1.1916728484
 C         -8.8256737683       -0.6115658149        1.0085267926
 C         -7.0370226223       -1.1010718996       -0.6463546974
 C         -7.6539978261       -2.1652577764       -1.2867139288
 C         -6.9596218546       -3.1912419684       -1.9148663773
 C         -7.7262421259       -4.3289369167       -2.5686122511
 C         -8.5796547987       -5.0331723586       -1.5042824338
 C         -8.6319405104       -3.7608873600       -3.6706418867
 C         -6.7989238078       -5.3696107791       -3.2015169711
 C         -5.5754714061       -3.0988519300       -1.9223175850
 C         -4.9325085846       -2.0530309856       -1.2925162671
 C         -5.6425568998       -1.0658473407       -0.6124682673
 N         -4.9684720444       -0.0257206688        0.0375279079
 C         -3.5750370109       -0.0155747343        0.0515951053
 C         -2.8463031103        1.0208843587       -0.5482408676
 F         -3.5068552371        2.0058130337       -1.1690058158
 C         -1.4614993415        1.0349055763       -0.5293255636
 F         -0.8024311736        2.0274728225       -1.1377147558
 C         -0.7366259856        0.0007193358        0.0621292023
 C          0.7361979642        0.0039433583        0.0550205046
 C          1.4542937381       -1.0320225041       -0.5414299112
 F          0.7883662148       -2.0237808099       -1.1437565982
 C          2.8390214995       -1.0217318463       -0.5700324414
 F          3.4925186134       -2.0085417361       -1.1953369568
 C          3.5745084529        0.0121200754        0.0259256552
 N          4.9678851203        0.0152403507        0.0113918973
 C          5.6617587128       -1.0291291541        0.6328321972
 C          4.9730799921       -2.0053094405        1.3498938498
 C          5.6328864310       -3.0569309340        1.9517594869
 C          7.0139817692       -3.1659978068        1.8779872504
 C          7.7971775382       -4.3113750149        2.4977020655
 C          6.8882588806       -5.3429753635        3.1708251707
 C          8.7557423514       -3.7516315621        3.5582765328
 C          8.5959436209       -5.0242077269        1.3973530585
 C          7.6898897153       -2.1497306476        1.2148867755
 C          7.0555388222       -1.0798427589        0.6015147304
 C          7.8965423267        0.0085215963       -0.0349811212
 C          8.7929091165        0.6270040363        1.0532584529
 C          8.7535982860       -0.6145166541       -1.1518902184
 C          7.0405891844        1.1011046046       -0.6438763726
 C          7.6603770253        2.1684319844       -1.2762740389
 C          6.9688806327        3.1882978590       -1.9174031318
 C          7.7378256918        4.3310747813       -2.5594507049
 C          8.5786069838        5.0346699910       -1.4847329895
 C          8.6558004437        3.7696444671       -3.6544429942
 C          6.8129843345        5.3713167792       -3.1965839768
 C          5.5857424703        3.0848722621       -1.9491336303
 C          4.9400965845        2.0359315064       -1.3273749731
 C          5.6461896974        1.0565342711       -0.6320157254
 C          2.8454679255        1.0412331806        0.6376843347
 F          3.5060439372        2.0318981720        1.2492625286
 C          1.4601478836        1.0436147172        0.6374372296
 F          0.8009480830        2.0319208147        1.2524800015
 C         -1.4538990609       -1.0389137792        0.6526635111
 F         -0.7880533610       -2.0245819553        1.2648612533
 C         -2.8392997066       -1.0403813069        0.6622283966
 F         -3.4927331656       -2.0315010647        1.2807959119
 H         -9.1369311977        5.8722604380        1.7897459801
 H         -9.3045106998        4.3596547272        0.9037368972
 H         -7.9069455668        5.3929238506        0.6162249976
 H         -9.3348861396        4.5742130079        4.0041228576
 H         -9.4972755446        3.0729592766        3.0973662679
 H         -8.2354164900        3.2278787493        4.3171542613
 H         -6.3539320052        4.8949569079        3.9978736252
 H         -7.5088404915        6.1515562957        3.5706148374
 H         -6.1954526534        5.7674018119        2.4631196902
 H         -5.0572553369        3.7646537156        2.5211692828
 H         -3.9112440752        1.9230374124        1.5073898270
 H         -8.7711786612        2.1987059403        1.1501241295
 H         -9.3672758849        1.4180205993       -0.8103753398
 H         -9.3374305211       -0.1074833479       -1.6877247845
 H         -8.0493047789        1.0725660106       -1.9301279091
 H         -8.2319939396       -1.0680577788        1.7981336179
 H         -9.4644884433       -1.3756711298        0.5746588390
 H         -9.4622014859        0.1479005775        1.4537118249
 H         -8.7318950106       -2.1917733191       -1.2987412787
 H         -9.1196969249       -5.8671476345       -1.9476092509
 H         -9.3052974136       -4.3549559295       -1.0639092896
 H         -7.9450206945       -5.4161364969       -0.7080542275
 H         -8.0356886570       -3.2320700137       -4.4113268390
 H         -9.3643545512       -3.0678945406       -3.2658989150
 H         -9.1666315391       -4.5667563250       -4.1689540606
 H         -6.1418043177       -5.8114627585       -2.4562594956
 H         -7.3946795890       -6.1673064459       -3.6405189564
 H         -6.1965066576       -4.9274619578       -3.9916088812
 H         -4.9687947856       -3.8350780160       -2.4221386066
 H         -3.8555192031       -2.0102761912       -1.3501755801
 H          3.9004321398       -1.9485865322        1.4575859271
 H          5.0424731103       -3.7846552954        2.4824792283
 H          6.1935909000       -5.7762775770        2.4551923975
 H          7.4944070351       -6.1479809291        3.5814668907
 H          6.3267977019       -4.8960990152        3.9879275357
 H          9.4761156969       -3.0659263208        3.1207699430
 H          9.3040379708       -4.5625136455        4.0330810624
 H          8.1979391067       -3.2166588256        4.3240428158
 H          9.1444160857       -5.8648825068        1.8170100512
 H          7.9233095703       -5.3989922645        0.6288518670
 H          9.3102781300       -4.3544004144        0.9266519744
 H          8.7666935321       -2.1894811831        1.1749325570
 H          8.1749354582        1.0625524501        1.8359619130
 H          9.4363126151       -0.1240991633        1.5026195859
 H          9.4234238827        1.4091038975        0.6398615863
 H          9.3952103302       -1.3979679219       -0.7586407003
 H          9.3837863292        0.1337198916       -1.6242363991
 H          8.1080882780       -1.0494149155       -1.9124258116
 H          8.7380836416        2.2029771740       -1.2703390414
 H          9.1170596798        5.8739404816       -1.9198975889
 H          9.3050844454        4.3589435007       -1.0420178496
 H          7.9354400134        5.4100284575       -0.6917137100
 H          8.0685813157        3.2424171108       -4.4033574619
 H          9.1937225705        4.5788322306       -4.1437780885
 H          9.3853266126        3.0765729337       -3.2445762739
 H          6.2235735306        4.9325383461       -3.9982114287
 H          6.1436519005        5.8031392911       -2.4563450701
 H          7.4096991477        6.1761086541       -3.6212320333
 H          4.9825136952        3.8150868421       -2.4617252866
 H          3.8644719437        1.9839275542       -1.4023619300
