  47
        -66.29396348
 C          2.9531523986        3.7997792292       -0.9898020720
 C          1.6258833112        3.8886842359       -0.2451441855
 C          0.5358503911        3.0660514477       -0.9327898705
 C         -0.7331969187        2.9210263781       -0.0931765144
 C         -0.5790798098        1.9180377131        1.0651655181
 C         -0.4061327571        0.5180757457        0.5749312110
 C          0.8490923172       -0.0715564631        0.4278698413
 N          2.0711722579        0.4996474650        0.6752238719
 C          3.0759296394       -0.3869031807        0.4107384876
 C          4.4432901533       -0.2268894248        0.5101398256
 C          5.2452562326       -1.3136968252        0.1752930191
 C          4.6743547784       -2.5201696510       -0.2449774536
 C          3.3097920537       -2.6900723321       -0.3502241157
 C          2.4725904859       -1.6129377545       -0.0226805162
 C          1.0765155167       -1.4046166899       -0.0118920075
 C         -0.0297308957       -2.2291698543       -0.3436398777
 C         -1.2804265340       -1.6473764840       -0.2204072489
 N         -2.4908216418       -2.2339304506       -0.4865802532
 C         -3.5043830379       -1.3471547081       -0.2607058854
 C         -4.8658129822       -1.5245635825       -0.4055130125
 C         -5.6937536779       -0.4466606760       -0.1173360516
 C         -5.1465627327        0.7710231193        0.3001564657
 C         -3.7892727766        0.9584744919        0.4493426746
 C         -2.9170299375       -0.1106551423        0.1773403603
 C         -1.5166817920       -0.3102881927        0.2070577148
 H          2.8426654432        4.1741120092       -2.0047230319
 H          3.7180425799        4.3893552205       -0.4890438543
 H          3.2955739500        2.7679339939       -1.0475044161
 H          1.7663059029        3.5492589756        0.7836442653
 H          1.3084270819        4.9323655932       -0.1916598621
 H          0.2812278385        3.5545365166       -1.8759684149
 H          0.9185572748        2.0737572105       -1.1746476129
 H         -1.5453668890        2.5749691506       -0.7336305621
 H         -1.0118461493        3.8957796026        0.3139549145
 H          0.2671049195        2.2082875532        1.6900608268
 H         -1.4745454877        1.9666203163        1.6853021184
 H          2.2100101219        1.4558426452        0.9552073714
 H          4.8760207653        0.7071793901        0.8385774520
 H          6.3182611920       -1.2271295962        0.2435063951
 H          5.3303221299       -3.3427718716       -0.4927765316
 H          2.8900556302       -3.6284327709       -0.6779185271
 H          0.1041197075       -3.2438125938       -0.6802089196
 H         -2.6113690028       -3.1838024992       -0.8000289340
 H         -5.2719858365       -2.4701773301       -0.7329773416
 H         -6.7628294543       -0.5468619679       -0.2177183746
 H         -5.8158410686        1.5933088680        0.5114251060
 H         -3.4138419478        1.9184673336        0.7637253623
