  59
        -74.38988814
 C         -1.3015514707        3.8736961315        0.7247642796
 C         -0.6538920815        4.4756970335       -0.5161788463
 C          0.1342051906        3.4547355665       -1.3375880156
 C          1.3743936723        2.9426122924       -0.6080685884
 C          2.3566735483        2.2012896622       -1.5140061336
 C          1.8526395778        0.8940279031       -2.1301087377
 C          1.6762020190       -0.2782850984       -1.1358440934
 C          1.5084490139       -1.5834204039       -1.9498083655
 C          1.5841262037       -2.8814831660       -1.1406001385
 C          0.4325243180       -3.1500188923       -0.1717388793
 C         -0.9262951920       -3.3111327092       -0.8466369724
 C         -2.0337290517       -3.5708418946        0.1718452899
 C         -3.4035357393       -3.6599881320       -0.4890556576
 C          2.8309324406       -0.3709449738       -0.1643655751
 C          4.1545713754       -0.5717624765       -0.4121007583
 C          5.0586406838       -0.6193135939        0.6639172811
 C          4.6073935601       -0.4615454919        1.9871291365
 C          3.2874429366       -0.2613137545        2.2710812668
 C          2.3506440713       -0.2097468465        1.1937807528
 C          0.9814043313       -0.0249006037        1.1767176556
 C          0.0213771291        0.1615293426        2.2300235057
 C         -1.2923029817        0.2862676197        1.9156725147
 C         -1.7189937714        0.2483230534        0.5610986909
 Br        -3.5648332273        0.3817839230        0.1777133898
 C         -0.8029880112        0.0910419115       -0.5037488367
 C          0.5119627169       -0.0527304950       -0.2080970648
 H         -0.5532906917        3.4646266576        1.3993268316
 H         -1.8671209671        4.6319369476        1.2616572484
 H         -1.9846915990        3.0761592270        0.4440201017
 H         -1.4358216177        4.9045344529       -1.1478722456
 H          0.0126292841        5.2891685984       -0.2193180630
 H          0.4457367640        3.9262624657       -2.2735129523
 H         -0.5227443372        2.6196590497       -1.5865841490
 H          1.0767635304        2.2930529646        0.2150767165
 H          1.9020810659        3.7973748595       -0.1757820609
 H          3.2637863138        1.9904360260       -0.9422718391
 H          2.6370963024        2.8677580044       -2.3347584981
 H          2.5807941443        0.5867984233       -2.8849638012
 H          0.9047390006        1.0659907107       -2.6413335561
 H          0.5646750248       -1.5372837568       -2.4943926677
 H          2.3105301901       -1.6184950453       -2.6913882735
 H          1.6335549669       -3.7097521673       -1.8531956765
 H          2.5180492484       -2.8832270728       -0.5729178887
 H          0.6610754689       -4.0688384035        0.3754227466
 H          0.3748421720       -2.3463996758        0.5639292709
 H         -1.1730297117       -2.4061546008       -1.4026689847
 H         -0.8846911914       -4.1384970208       -1.5592984454
 H         -2.0374801446       -2.7623331180        0.9074503304
 H         -1.8246671227       -4.4999062223        0.7071040465
 H         -3.4214806201       -4.4614028731       -1.2245689161
 H         -3.6457948854       -2.7273325243       -0.9937577088
 H         -4.1750607413       -3.8559703709        0.2515839454
 H          4.5213242402       -0.6943171311       -1.4211479530
 H          6.1085000819       -0.7769335940        0.4737169570
 H          5.3312253415       -0.5024505469        2.7885661555
 H          2.9409906995       -0.1416768273        3.2859053786
 H          0.3552696126        0.1930612426        3.2550058132
 H         -2.0373592536        0.4190796371        2.6856988920
 H         -1.1702278388        0.0785160800       -1.5192470768
