59
 energy: -74.395153759735 gnorm: 0.000030477052 xtb: 6.7.1 (edcfbbe)
C            7.60265437667440       -1.19247776547765       -0.87976071813511
C            6.31296700707439       -1.29407990551221       -1.68463012968927
C            5.07713259621106       -1.15774554711616       -0.79848653053826
C            3.78156755583526       -1.25847426430169       -1.59914718243327
C            2.54761817668819       -1.12496684380838       -0.71114895051655
C            1.25689448667544       -1.23012594040633       -1.51934331521528
C           -0.00299354715053       -1.10418804178658       -0.64136578290054
C           -1.26097752053189       -1.22296729565649       -1.52326213720739
C           -2.55325384441051       -1.10880937119486       -0.71879960378328
C           -3.78593647196027       -1.23725330489661       -1.60926402736250
C           -5.08229068085850       -1.12718570238743       -0.81111038442829
C           -6.31760393120365       -1.25948629957891       -1.69855462465699
C           -7.60766371947663       -1.15009750872890       -0.89529986558351
C           -0.00818536948176       -2.13131656630779        0.46681599911973
C           -0.01126390043740       -3.48865049840305        0.38534146031243
C           -0.01687508789567       -4.25190321391381        1.56828111479572
C           -0.01941928502414       -3.62180735736718        2.82950375789658
C           -0.01632611336245       -2.26395428961511        2.94742607586628
C           -0.01040544708989       -1.46715407055477        1.75834042441235
C           -0.00617481114600       -0.10071933191835        1.57009212419416
C           -0.00627523183397        0.99488383344690        2.50154556630190
C           -0.00145120915288        2.26651259421960        2.02967112568809
C            0.00375407248144        2.51647355234470        0.63295499229846
Br           0.01005448536708        4.30418942369051        0.02147357371537
C            0.00389854726821        1.46207919480465       -0.31435319488667
C           -0.00102152414428        0.18773569450290        0.14095855842003
H            8.46925109451979       -1.29232313405392       -1.52921462634583
H            7.66145387694970       -0.23109048585507       -0.37405734823351
H            7.64512317165751       -1.97699717742789       -0.12723847610382
H            6.29806853981923       -0.51102394470925       -2.44623134041277
H            6.28190660474305       -2.25674946417533       -2.20029839910045
H            5.10780997134676       -0.19525140235638       -0.28231609503415
H            5.09123455805134       -1.94059463910136       -0.03633751254662
H            3.75148228051211       -2.22043507068567       -2.11685107448802
H            3.76603219296546       -0.47427141611301       -2.36005770676068
H            2.57444896975118       -0.16261953020738       -0.19404979953555
H            2.56144160231707       -1.90774032977241        0.05126399617755
H            1.23117572330577       -2.19243053529357       -2.03509833113622
H            1.23926696341764       -0.44438648039584       -2.27773486361798
H           -1.23607333635308       -0.43812477459461       -2.28237765052356
H           -1.23980425032406       -2.18598049639559       -2.03789391294699
H           -2.57341397797812       -1.88985164313304        0.04526270347124
H           -2.57596829473315       -0.14523608784815       -0.20379730442668
H           -3.76435958477055       -0.45496287413674       -2.37199559725368
H           -3.76037183420432       -2.20061476899352       -2.12458519836101
H           -5.10173854196312       -1.90769098610535       -0.04665815179282
H           -5.10855042447227       -0.16303264678489       -0.29780871234203
H           -6.29051932079164       -2.22339841553816       -2.21210300007468
H           -6.29809912260874       -0.47813904993335       -2.46181222889707
H           -7.65459425740674       -1.93280456716672       -0.14114688586153
H           -8.47405768296191       -1.24724799458576       -1.54542141752480
H           -7.66243785807486       -0.18738086950298       -0.39168664046875
H           -0.00958564439443       -3.99202525336370       -0.57072480699194
H           -0.01942475630478       -5.32885020834693        1.51078927025130
H           -0.02394917027499       -4.24105744046739        3.71516341045750
H           -0.01829054255397       -1.78109528881073        3.91225912794600
H           -0.01024246394031        0.79287779022982        3.56081786675054
H           -0.00148161303720        3.11018133658135        2.70348835424168
H            0.00771657981713        1.69763719783264       -1.36778348893447
