  47
  -72.4752409818000        1.00000000000000      !
 C         -5.0619311236       -2.6624602450       -0.1096770946
 C         -4.8650148263       -1.3350259501       -0.4873259562
 C         -3.6187640055       -0.7635187076       -0.4513428757
 C         -2.4920409156       -1.5168236518       -0.0175423481
 C         -1.1766960708       -1.0417634355        0.0641335007
 N         -0.1222457444       -1.8846728096        0.1399210698
 C          0.9671839067       -1.1550443337        0.0500991248
 C          2.3173987005       -1.6112983274        0.0093588647
 C          2.6039586500       -2.9765567739        0.0021850905
 C          3.9116434701       -3.4159779395       -0.0817903821
 C          4.9313605166       -2.4820622118       -0.1688835689
 C          4.6557612047       -1.1242738516       -0.1556131960
 C          3.3464837520       -0.6426515951       -0.0551057637
 C          3.0243542220        0.7751581044        0.0045197873
 C          4.0203342114        1.7444508521        0.0590364505
 C          3.7391181892        3.0955105679        0.1575788482
 C          2.4114874873        3.5270781002        0.2317090294
 C          1.3946871379        2.6170296348        0.1756262913
 C          1.6505160011        1.2242666837        0.0397309623
 C          0.6515197076        0.2549244807       -0.0198216185
 N         -0.7236821780        0.3065532056       -0.0097842164
 C         -1.5489999694        1.4349945805       -0.0010612494
 C         -2.4464227912        1.6311384912        1.0506923486
 C         -3.2739354518        2.7364712057        1.0504447820
 C         -3.2207477329        3.6524360297        0.0106102591
 C         -2.3327223489        3.4568672661       -1.0374996801
 C         -1.4998044791        2.3558179090       -1.0499900594
 C         -2.7103147278       -2.8867676326        0.3189880786
 C         -3.9633379561       -3.4328502871        0.2796139902
 H         -6.0500941619       -3.0949047282       -0.1355319381
 H         -5.7068838163       -0.7481628915       -0.8256387569
 H         -3.4913343870        0.2470838921       -0.8012609940
 H          1.7772277931       -3.6673699795        0.0559946398
 H          4.1352015999       -4.4719051905       -0.0865243845
 H          5.9576910052       -2.8107541079       -0.2469884137
 H          5.4863598107       -0.4407872215       -0.2293640723
 H          5.0574441175        1.4494875820        0.0376812612
 H          4.5448240383        3.8125094377        0.1949364361
 H          2.1917595822        4.5788956407        0.3399174870
 H          0.3751856105        2.9545572015        0.2598346121
 H         -2.4835739201        0.9117669807        1.8549559551
 H         -3.9631894092        2.8863406676        1.8675804538
 H         -3.8704361594        4.5141571028        0.0142868785
 H         -2.2943667702        4.1638076833       -1.8529399126
 H         -0.8106978934        2.1929280947       -1.8656380680
 H         -1.8532822809       -3.4658661420        0.6224751657
 H         -4.1087101893       -4.4681033082        0.5526956830
