  47
  -72.7824663400000       0.500539679159118      !
 C         -5.0619311236       -2.6624602450       -0.1096770946
 C         -4.8650148263       -1.3350259501       -0.4873259562
 C         -3.6187640055       -0.7635187076       -0.4513428757
 C         -2.4920409156       -1.5168236518       -0.0175423481
 C         -1.1766960708       -1.0417634355        0.0641335007
 N         -0.1222457444       -1.8846728096        0.1399210698
 C          0.9671839067       -1.1550443337        0.0500991248
 C          2.3173987005       -1.6112983274        0.0093588647
 C          2.6039586500       -2.9765567739        0.0021850905
 C          3.9116434701       -3.4159779395       -0.0817903821
 C          4.9313605166       -2.4820622118       -0.1688835689
 C          4.6557612047       -1.1242738516       -0.1556131960
 C          3.3464837520       -0.6426515951       -0.0551057637
 C          3.0243542220        0.7751581044        0.0045197873
 C          4.0203342114        1.7444508521        0.0590364505
 C          3.7391181892        3.0955105679        0.1575788482
 C          2.4114874873        3.5270781002        0.2317090294
 C          1.3946871379        2.6170296348        0.1756262913
 C          1.6505160011        1.2242666837        0.0397309623
 C          0.6515197076        0.2549244807       -0.0198216185
 N         -0.7236821780        0.3065532056       -0.0097842164
 C         -1.5489999694        1.4349945805       -0.0010612494
 C         -2.4464227912        1.6311384912        1.0506923486
 C         -3.2739354518        2.7364712057        1.0504447820
 C         -3.2207477329        3.6524360297        0.0106102591
 C         -2.3327223489        3.4568672661       -1.0374996801
 C         -1.4998044791        2.3558179090       -1.0499900594
 C         -2.7103147278       -2.8867676326        0.3189880786
 C         -3.9633379561       -3.4328502871        0.2796139902
 H         -6.0500941619       -3.0949047282       -0.1355319381
 H         -5.7068838163       -0.7481628915       -0.8256387569
 H         -3.4913343870        0.2470838921       -0.8012609940
 H          1.7772277931       -3.6673699795        0.0559946398
 H          4.1352015999       -4.4719051905       -0.0865243845
 H          5.9576910052       -2.8107541079       -0.2469884137
 H          5.4863598107       -0.4407872215       -0.2293640723
 H          5.0574441175        1.4494875820        0.0376812612
 H          4.5448240383        3.8125094377        0.1949364361
 H          2.1917595822        4.5788956407        0.3399174870
 H          0.3751856105        2.9545572015        0.2598346121
 H         -2.4835739201        0.9117669807        1.8549559551
 H         -3.9631894092        2.8863406676        1.8675804538
 H         -3.8704361594        4.5141571028        0.0142868785
 H         -2.2943667702        4.1638076833       -1.8529399126
 H         -0.8106978934        2.1929280947       -1.8656380680
 H         -1.8532822809       -3.4658661420        0.6224751657
 H         -4.1087101893       -4.4681033082        0.5526956830
  47
  -72.7824643000000       0.499460320840882      !
 C         -5.0641640211       -2.6553279881       -0.1753738178
 C         -4.8798639585       -1.3458527291        0.2658175776
 C         -3.6319786135       -0.7779363427        0.3035200530
 C         -2.4904611892       -1.5159718491       -0.1180626382
 C         -1.1733625466       -1.0394611085       -0.1352883253
 N         -0.1161441362       -1.8786152113       -0.2164880105
 C          0.9694411721       -1.1537462899       -0.0639490371
 C          2.3189711578       -1.6109691574       -0.0114303724
 C          2.6073704434       -2.9746732425       -0.0687011754
 C          3.9135534659       -3.4173918299        0.0207486614
 C          4.9297309158       -2.4887880994        0.1781865506
 C          4.6524234151       -1.1323329832        0.2297835194
 C          3.3448215354       -0.6465033493        0.1264535691
 C          3.0221066524        0.7723744557        0.1321995817
 C          4.0172010267        1.7437046231        0.1628918225
 C          3.7368738949        3.0979074586        0.1227382057
 C          2.4118709994        3.5322237125        0.0219986803
 C          1.3956139803        2.6202141516       -0.0017467677
 C          1.6493294568        1.2225858994        0.0753095206
 C          0.6502919984        0.2517266172        0.0594732093
 N         -0.7240289375        0.3040979127        0.0117696454
 C         -1.5491444435        1.4330635581        0.0188382001
 C         -1.5412385692        2.3088986524        1.1065251296
 C         -2.3736646902        3.4104545972        1.1076839023
 C         -3.2197863911        3.6509906948        0.0346362651
 C         -3.2321873030        2.7794300721       -1.0438343997
 C         -2.4050368582        1.6739263440       -1.0577697378
 C         -2.6974443616       -2.8708760284       -0.5173796918
 C         -3.9520501322       -3.4135808646       -0.5504772408
 H         -6.0536318093       -3.0843087619       -0.2088165593
 H         -5.7336691437       -0.7698796127        0.5936131439
 H         -3.5167490763        0.2172859861        0.6993909037
 H          1.7831067247       -3.6619495858       -0.1772082550
 H          4.1388006373       -4.4719981508       -0.0252400023
 H          5.9546991913       -2.8207028713        0.2603415356
 H          5.4804147695       -0.4532785520        0.3551866043
 H          5.0534707850        1.4486588659        0.2075260165
 H          4.5417329982        3.8162968768        0.1508372778
 H          2.1941340600        4.5880040891       -0.0428196919
 H          0.3789248404        2.9609497548       -0.1045408098
 H         -0.8852781412        2.1101722515        1.9417284446
 H         -2.3677894473        4.0825170822        1.9529615320
 H         -3.8687175087        4.5133027873        0.0413159532
 H         -3.8884517336        2.9650169873       -1.8809555633
 H         -2.4097809219        0.9892361229       -1.8928281644
 H         -1.8299863093       -3.4401016687       -0.8092073155
 H         -4.0882754974       -4.4362576967       -0.8712514749
