  61
        -95.40961196
 C          2.8660229835       -3.5134587801        1.4027876883
 C          1.5079905206       -3.5759109694        1.2279830666
 C          0.7762401129       -2.4884676570        0.6653295125
 C         -0.6364223021       -2.4964219906        0.5792698851
 C         -1.4188045994       -3.7004692256        0.7204328364
 N         -2.7110722364       -3.7091655577        0.7235763749
 C         -3.4399617033       -2.6216738445        0.5440681997
 C         -2.7842844573       -1.3915011117        0.2179413240
 N         -3.5505937031       -0.2547588820       -0.0051265462
 C         -3.3548931966        0.9794681911        0.5858896020
 C         -2.4060894639        1.3726853956        1.5186838878
 C         -2.4359870435        2.6850341109        1.9563483318
 C         -3.3902140598        3.5839970172        1.4880308088
 C         -4.3579158531        3.1894235201        0.5815736498
 C         -4.3495632480        1.8779181914        0.1301205385
 C         -5.1901481825        1.1349230020       -0.7695270263
 C         -6.3057559969        1.4617521384       -1.5257859102
 C         -6.8758382436        0.4830705872       -2.3204433446
 C         -6.3404379645       -0.8011125472       -2.3759023805
 C         -5.2260274245       -1.1499144757       -1.6335336901
 C         -4.6641733212       -0.1783688030       -0.8181748987
 C         -1.4162050238       -1.3493148558        0.2449680394
 C          1.5429913131       -1.3704059300        0.2464988832
 C          2.9039174840       -1.3168319748        0.4372408545
 N          3.6096493801       -0.1621709197        0.0584143464
 C          4.7722923406       -0.1284544543       -0.6782855929
 C          5.4770539810       -1.1716755484       -1.2652184376
 C          6.6164274549       -0.8575236388       -1.9813857455
 C          7.0446543936        0.4601147314       -2.1254321275
 C          6.3320190998        1.5057393703       -1.5675956032
 C          5.1861163735        1.2155961001       -0.8426135954
 C          4.2116899634        2.0253843720       -0.1632462773
 C          4.0746002812        3.3912252982        0.0342631467
 C          2.9960302677        3.8492372023        0.7683665407
 C          2.0740232409        2.9615373224        1.3181177402
 C          2.1920499272        1.5966021608        1.1389275977
 C          3.2564580872        1.1308113476        0.3770737246
 C          3.5944137354       -2.3876444484        1.0271568825
 H          3.3858155032       -4.3483500589        1.8507950394
 H          0.9793930605       -4.4603060688        1.5464206391
 H         -0.9375152605       -4.6663367461        0.7430666054
 H         -4.4989658459       -2.6719363216        0.7301449821
 H         -1.6794058328        0.6762278850        1.9074294427
 H         -1.7081610278        3.0154919976        2.6820915031
 H         -3.3801011922        4.6009201084        1.8504528629
 H         -5.1076001993        3.8835640960        0.2337734613
 H         -6.7158594427        2.4594996250       -1.4949925413
 H         -7.7457001997        0.7179172984       -2.9153898475
 H         -6.8008322039       -1.5391541769       -3.0152883087
 H         -4.8039400269       -2.1410713371       -1.6937930006
 H         -0.9285066333       -0.4210988288       -0.0087887792
 H          1.0655426343       -0.5447788610       -0.2570647054
 H          5.1397847656       -2.1927075809       -1.1742516666
 H          7.1850194754       -1.6507980773       -2.4434657022
 H          7.9412984688        0.6648826139       -2.6912705466
 H          6.6554091988        2.5277425324       -1.6957946811
 H          4.7983240912        4.0792968520       -0.3760503665
 H          2.8684418316        4.9094593788        0.9282676413
 H          1.2501287804        3.3485405038        1.8991377992
 H          1.4871622910        0.9141274498        1.5884449527
 H          4.6539900579       -2.3183279205        1.2115936736
