  70
  -106.231474149700       0.294364691828859      !
 C         -8.3023396610       -2.3948697593       -1.4127622298
 C         -8.2949795799       -1.0394840536       -1.6978765927
 C         -7.2777012785       -0.2325473446       -1.2233814102
 C         -6.2611961597       -0.7800978914       -0.4458595134
 N         -5.2303325868        0.0359907222        0.0407998130
 C         -5.3940125638        1.2312532301        0.7118242810
 C         -6.5598217503        1.8682013133        1.1128845080
 C         -6.4396331025        3.0592452568        1.8026692337
 C         -5.1932126476        3.6073790218        2.0982162956
 C         -4.0295398502        2.9664369974        1.7237567931
 C         -4.1248557695        1.7670264517        1.0305224327
 C         -3.1525455626        0.8438278449        0.5170065222
 C         -1.7655603922        0.8334041379        0.5027394435
 C         -1.1068269415       -0.2227029357       -0.1084825603
 C          0.3710661968       -0.2607172046       -0.1390710846
 C          1.0614603575       -1.2141238741        0.6222367062
 C          0.3794754790       -2.1385589512        1.4563349498
 C          1.0591010891       -3.0503240679        2.2035453099
 C          2.4675700381       -3.0863283181        2.1733298676
 C          3.1600617046       -2.2088879582        1.3974555172
 C          2.4900360564       -1.2501219986        0.5926224139
 C          3.1945820742       -0.3315412599       -0.1975189881
 C          4.6718952901       -0.3729562132       -0.2287284642
 C          5.3265896295       -1.4429158883       -0.8755666947
 C          6.6894989938       -1.5000954915       -0.9231389412
 C          7.4781384498       -0.4956686836       -0.3231198537
 C          8.8874146001       -0.5260694951       -0.3532088726
 C          9.6198787365        0.4643307465        0.2389783931
 C          8.9765142832        1.5301616770        0.8880245983
 C          7.6120420969        1.5885289132        0.9338305100
 C          6.8272244866        0.5822925057        0.3322406035
 C          5.4190501717        0.6162401431        0.3601917243
 C          2.5053783260        0.6217453996       -0.9599146121
 C          3.1879897123        1.5464485485       -1.7935793911
 C          2.5086101999        2.4584218981       -2.5406701838
 C          1.1001944989        2.4943120766       -2.5106713507
 C          0.4075905876        1.6171021674       -1.7346601524
 C          1.0764073179        0.6576181839       -0.9297172216
 C         -1.8406820844       -1.2498459652       -0.7138236106
 C         -3.2210891196       -1.2562560807       -0.7167223758
 C         -3.8782635068       -0.2115104259       -0.0822733083
 C         -6.2730654808       -2.1412827199       -0.1555840748
 C         -7.2887305109       -2.9423128998       -0.6438001492
 H         -9.0960760456       -3.0225145173       -1.7883154260
 H         -9.0810939084       -0.6087568850       -2.3000583065
 H         -7.2558811103        0.8203470243       -1.4619505687
 H         -7.5301050133        1.4434906802        0.9040873240
 H         -7.3323949478        3.5752715728        2.1234377064
 H         -5.1421731062        4.5417426258        2.6369479027
 H         -3.0628780382        3.3810652988        1.9672004844
 H         -1.2033216763        1.6329547607        0.9616259328
 H         -0.6988583833       -2.0987849866        1.4924101926
 H          0.5257592965       -3.7471768714        2.8336118767
 H          2.9916793351       -3.8102717715        2.7800715880
 H          4.2397429066       -2.2247889693        1.3885777547
 H          4.7261202310       -2.2129941040       -1.3385013509
 H          7.1857057692       -2.3194795104       -1.4240452193
 H          9.3777158892       -1.3489595046       -0.8541098605
 H         10.6993195977        0.4345385941        0.2129716624
 H          9.5711759427        2.3035725492        1.3518197782
 H          7.1114272727        2.4069598337        1.4317651539
 H          4.9251758676        1.4369893054        0.8617967063
 H          4.2664375353        1.5083420875       -1.8298785622
 H          3.0427125869        3.1550296122       -3.1702901399
 H          0.5761264373        3.2180930785       -3.1176254829
 H         -0.6718276875        1.6330192619       -1.7256271119
 H         -1.3034330690       -2.0507564292       -1.2007982941
 H         -3.7677749306       -2.0457551951       -1.2098194839
 H         -5.4933824917       -2.5601569636        0.4630629523
 H         -7.2924035373       -3.9978458011       -0.4156608216
  70
  -106.231127849400       0.204050243654153      !
 C         -8.2878094397       -2.6062339862       -1.0865254725
 C         -8.3112316286       -1.2829553886       -1.4949260415
 C         -7.2972209372       -0.4202362935       -1.1225166377
 C         -6.2530318235       -0.8777726932       -0.3237622331
 N         -5.2304643387       -0.0012943556        0.0660211537
 C         -5.4107120183        1.2427865550        0.6370638594
 C         -6.5843802166        1.8874548429        1.0013766981
 C         -6.4805133521        3.1355345622        1.5847955414
 C         -5.2422158957        3.7323597921        1.8126480538
 C         -4.0702075172        3.0856950792        1.4756535793
 C         -4.1492494300        1.8300659948        0.8880152443
 C         -3.1645080961        0.8876466396        0.4369152200
 C         -1.7782329495        0.9064930176        0.3988354885
 C         -1.1041781774       -0.1816129337       -0.1354707347
 C          0.3729810152       -0.1887937022       -0.1881456554
 C          1.0962888368       -1.0951032706        0.6004624881
 C          0.4475769491       -1.9942878347        1.4873271636
 C          1.1552377926       -2.8866583280        2.2318065256
 C          2.5598787548       -2.9396462998        2.1313997925
 C          3.2221909740       -2.0788280252        1.3117939635
 C          2.5244605388       -1.1149053338        0.5370608994
 C          3.1974366724       -0.2042621584       -0.2895036666
 C          4.6737752744       -0.2154057639       -0.3532203039
 C          5.3165933745       -0.6391082112       -1.5364788823
 C          6.6786201776       -0.6627873114       -1.6205460140
 C          7.4789512399       -0.2599639962       -0.5303805320
 C          8.8876983660       -0.2694638628       -0.5860374053
 C          9.6316266123        0.1272999523        0.4898765937
 C          9.0006488526        0.5508496811        1.6703919864
 C          7.6369412295        0.5714779865        1.7555858932
 C          6.8404750214        0.1689234842        0.6627987816
 C          5.4327392198        0.1778925415        0.7207660917
 C          2.4758689231        0.7156092877       -1.0632124637
 C          3.1292351818        1.6746034719       -1.8815563500
 C          2.4213270010        2.5484213652       -2.6475506307
 C          1.0126401974        2.5126779639       -2.6477660501
 C          0.3481960661        1.6242106656       -1.8598096613
 C          1.0468902103        0.7127440026       -1.0249629866
 C         -1.8242908507       -1.2713554088       -0.6404807417
 C         -3.2040077489       -1.3087959002       -0.6168669516
 C         -3.8753737937       -0.2295484853       -0.0593950174
 C         -6.2322812445       -2.2071657861        0.0877957023
 C         -7.2451439798       -3.0652785549       -0.2989311790
 H         -9.0797829106       -3.2777078473       -1.3814115024
 H         -9.1187908558       -0.9215680402       -2.1140795188
 H         -7.2997112425        0.6063618555       -1.4573936814
 H         -7.5480909432        1.4265152186        0.8456850712
 H         -7.3798959457        3.6589810654        1.8738411442
 H         -5.2039894740        4.7106366167        2.2680539032
 H         -3.1094256103        3.5396273876        1.6665463869
 H         -1.2279043048        1.7528590715        0.7819811517
 H         -0.6286021700       -1.9536564549        1.5632971665
 H          0.6467360044       -3.5635430356        2.9027786200
 H          3.1054329765       -3.6673944957        2.7141422416
 H          4.2985950978       -2.1185510677        1.2373558917
 H          4.7072977707       -0.9501580785       -2.3733458567
 H          7.1651734667       -0.9915481368       -2.5281820672
 H          9.3684191313       -0.5972389528       -1.4970242423
 H         10.7106545083        0.1180105922        0.4404805212
 H          9.6041359560        0.8621105253        2.5102576646
 H          7.1458791564        0.8967522808        2.6618948170
 H          4.9488724110        0.5082998311        1.6295266519
 H          4.2087158831        1.7014304638       -1.8823828194
 H          2.9329448228        3.2729003671       -3.2642290652
 H          0.4658763181        3.1997796245       -3.2769596176
 H         -0.7310211136        1.5986674158       -1.8596910820
 H         -1.2767972034       -2.0971050141       -1.0714481567
 H         -3.7401025705       -2.1485906630       -1.0325507107
 H         -5.4303613979       -2.5557534117        0.7213934394
 H         -7.2246338675       -4.0952925446        0.0249356467
  70
  -106.230903029300       0.160848477107242      !
 C         -8.2798352501       -1.6019020406       -2.3119380017
 C         -7.2243458038       -0.9314343492       -2.9077655810
 C         -6.2161208710       -0.3896932443       -2.1324830855
 C         -6.2545065720       -0.5255231731       -0.7476110528
 N         -5.2333516822        0.0230259711        0.0407843054
 C         -5.4091226292        0.8485830735        1.1332700281
 C         -6.5802770681        1.3434230474        1.6892278395
 C         -6.4716804259        2.1817330838        2.7820580030
 C         -5.2311264691        2.5317307051        3.3111141749
 C         -4.0615479638        2.0630827886        2.7473227411
 C         -4.1450973881        1.2198371882        1.6473283988
 C         -3.1635557593        0.5786841407        0.8182502819
 C         -1.7766112409        0.5567954754        0.8286486741
 C         -1.1075591632       -0.1947487443       -0.1262353831
 C          0.3692368953       -0.2216865585       -0.1577323165
 C          1.0867817866       -0.7942259797        0.9031058283
 C          0.4344309728       -1.3929238231        2.0130449026
 C          1.1423145520       -1.9459676828        3.0352403702
 C          2.5514226315       -1.9447010500        3.0089416891
 C          3.2162334666       -1.4012076026        1.9536968102
 C          2.5161947212       -0.8120217275        0.8681385789
 C          3.1927408141       -0.2767771100       -0.2348668539
 C          4.6711780148       -0.3136491108       -0.2894116430
 C          5.3097482060       -1.2788234748       -1.0966132809
 C          6.6714188390       -1.3308082097       -1.1751294628
 C          7.4731928931       -0.4174637610       -0.4582544966
 C          8.8813936600       -0.4375384587       -0.5266812493
 C          9.6275210208        0.4665324985        0.1760679722
 C          8.9994427317        1.4304281687        0.9807486644
 C          7.6365481348        1.4741013353        1.0701032877
 C          6.8377130482        0.5563877136        0.3560087940
 C          5.4301988117        0.5799604961        0.4226520734
 C          2.4779905739        0.2876973298       -1.2989537139
 C          3.1405820228        0.8493012956       -2.4220285655
 C          2.4413172816        1.4195534681       -3.4402122818
 C          1.0343030333        1.4783109948       -3.3883512660
 C          0.3623708762        0.9535662484       -2.3276499921
 C          1.0500208184        0.3266906991       -1.2554102871
 C         -1.8338094774       -0.9354068069       -1.0677365378
 C         -3.2135117742       -0.9283731425       -1.0958491392
 C         -3.8793292019       -0.1487325678       -0.1603683337
 C         -7.3120455740       -1.2059553766       -0.1509751797
 C         -8.3210350362       -1.7355010948       -0.9338308299
 H         -9.0680937479       -2.0189277878       -2.9200945766
 H         -7.1895264490       -0.8213878391       -3.9816526878
 H         -5.4032522510        0.1533376414       -2.5911698691
 H         -7.5457442304        1.0926787514        1.2764493880
 H         -7.3690210356        2.5773862436        3.2343785589
 H         -5.1891538990        3.1866649372        4.1684759476
 H         -3.0991295293        2.3462705418        3.1462406072
 H         -1.2224615473        1.1221960916        1.5629767454
 H         -0.6448487543       -1.4093621637        2.0286768142
 H          0.6295549516       -2.3979273470        3.8717307505
 H          3.0967123496       -2.3895078919        3.8283762294
 H          4.2956791954       -1.4138661381        1.9218235490
 H          4.6979515986       -1.9773478334       -1.6495058106
 H          7.1562136348       -2.0736813102       -1.7928995911
 H          9.3595483914       -1.1819292841       -1.1477144773
 H         10.7059703002        0.4467708037        0.1177759737
 H          9.6046853728        2.1380643518        1.5284460691
 H          7.1480917118        2.2143940925        1.6879536305
 H          4.9474594452        1.3225739207        1.0428936536
 H          4.2198309950        0.8204544555       -2.4494893938
 H          2.9583078691        1.8421213964       -4.2891564786
 H          0.4948718445        1.9516448322       -4.1957970790
 H         -0.7144543211        1.0148091108       -2.2831400173
 H         -1.2902024954       -1.5348917259       -1.7835385354
 H         -3.7540246857       -1.5203982613       -1.8189030685
 H         -7.3294183957       -1.3263847839        0.9221658543
 H         -9.1397068360       -2.2613136065       -0.4653607719
  70
  -106.230788739900       0.142525699719146      !
 C         -8.2872526212       -2.4241683620       -1.4175980655
 C         -8.3037610149       -1.0608205917       -1.6613399690
 C         -7.2902902430       -0.2537849501       -1.1787415443
 C         -6.2537657029       -0.8094221034       -0.4340250351
 N         -5.2284870874        0.0078582032        0.0622669173
 C         -5.4023098872        1.1796685813        0.7710341823
 C         -6.5725783760        1.7829021987        1.2101100456
 C         -6.4619692867        2.9525151631        1.9369664953
 C         -5.2204834380        3.5124409900        2.2321926807
 C         -4.0521164028        2.9051041419        1.8187805775
 C         -4.1379106166        1.7279628996        1.0870039378
 C         -3.1578639182        0.8374959047        0.5324104320
 C         -1.7709185899        0.8515781892        0.4985821507
 C         -1.1052612926       -0.1788960816       -0.1459240134
 C          0.3749773642       -0.1938539954       -0.1947724441
 C          1.0930378567       -1.0089319906        0.6888008114
 C          0.4336772428       -1.8157502883        1.6529530067
 C          1.1349851975       -2.6205146063        2.4963886289
 C          2.5412151895       -2.6750468504        2.4187217011
 C          3.2117074737       -1.9076967260        1.5165283070
 C          2.5214437674       -1.0349766164        0.6346889725
 C          3.1972117695       -0.2259555791       -0.2904032448
 C          4.6732085693       -0.2423143751       -0.3494153415
 C          5.3198211882       -0.7667864336       -1.4894045891
 C          6.6820657544       -0.7895143635       -1.5708112535
 C          7.4790928696       -0.2865258278       -0.5208336962
 C          8.8879020186       -0.2918639295       -0.5753904061
 C          9.6286336035        0.2032699465        0.4608758726
 C          8.9942671607        0.7261071072        1.5990890313
 C          7.6304819183        0.7457803676        1.6819760962
 C          6.8370976672        0.2425931809        0.6292837448
 C          5.4294167491        0.2490554798        0.6856227128
 C          2.4777324649        0.5988526176       -1.1675074087
 C          3.1280149375        1.4546110073       -2.0953591190
 C          2.4169869986        2.2373645713       -2.9520193604
 C          1.0077681298        2.2187612739       -2.9323139338
 C          0.3456576069        1.4314866009       -2.0419420316
 C          1.0490385625        0.6067450729       -1.1251665401
 C         -1.8282528345       -1.2039068148       -0.7660748800
 C         -3.2085573480       -1.2322029182       -0.7531084675
 C         -3.8739739731       -0.2138003198       -0.0852917403
 C         -6.2414123001       -2.1789424130       -0.1857344787
 C         -7.2531018306       -2.9796812481       -0.6825912163
 H         -9.0778386827       -3.0519649108       -1.7995546314
 H         -9.1055143189       -0.6235349764       -2.2377002469
 H         -7.2874872943        0.8061144397       -1.3854610940
 H         -7.5385824705        1.3478613456        1.0025524127
 H         -7.3582757241        3.4420605915        2.2882358294
 H         -5.1774085588        4.4289933913        2.8013968882
 H         -3.0887678835        3.3283236711        2.0605132831
 H         -1.2151047217        1.6513081709        0.9649280466
 H         -0.6443642385       -1.7750979255        1.7025333692
 H          0.6211554342       -3.2276900402        3.2273048039
 H          3.0821413621       -3.3331244418        3.0830155552
 H          4.2886701226       -1.9562473064        1.4567229063
 H          4.7134946718       -1.1571456619       -2.2942833448
 H          7.1710254676       -1.1944008202       -2.4456338999
 H          9.3711387217       -0.6961097790       -1.4534585233
 H         10.7077212629        0.1956017843        0.4131495282
 H          9.5954949637        1.1126967207        2.4092754492
 H          7.1369095089        1.1468893445        2.5561282875
 H          4.9430880601        0.6583498034        1.5602238408
 H          4.2074505807        1.4777943780       -2.1084797855
 H          2.9276278600        2.8803827044       -3.6539808634
 H          0.4605759343        2.8398645833       -3.6263735664
 H         -0.7339042440        1.4201617120       -2.0165878699
 H         -1.2831824435       -1.9864251284       -1.2738022144
 H         -3.7486365508       -2.0188982700       -1.2578403140
 H         -5.4463908951       -2.6048957439        0.4079886676
 H         -7.2385669115       -4.0415399465       -0.4863316265
  70
  -106.230385348300       9.300520154060905E-002 !
 C         -8.3331729543       -1.5502423644       -2.2769991274
 C         -8.3254605019       -0.2009523407       -1.9641895017
 C         -7.2983588675        0.3341463540       -1.2091364352
 C         -6.2722222715       -0.4868873621       -0.7503073404
 N         -5.2315566536        0.0518586672        0.0192642864
 C         -5.3830026364        0.8484063935        1.1370673633
 C         -6.5409291419        1.2465299432        1.7901181284
 C         -6.4070036642        2.0218078984        2.9260674534
 C         -5.1548773472        2.3910458334        3.4131429982
 C         -3.9987132164        1.9805399365        2.7805872213
 C         -4.1083152111        1.2008454027        1.6369335295
 C         -3.1460214693        0.5824177991        0.7694590365
 C         -1.7602289150        0.5672853284        0.7474432715
 C         -1.1072546454       -0.1515182578       -0.2444643441
 C          0.3677086991       -0.2099711590       -0.2575555175
 C          1.0452586265       -0.7828398055        0.8312548611
 C          0.3553619189       -1.3643727725        1.9277576710
 C          1.0261733697       -1.8834184792        2.9922158279
 C          2.4345305989       -1.8600909941        3.0275357735
 C          3.1355458297       -1.3469541513        1.9806542971
 C          2.4740373143       -0.8097852106        0.8448110429
 C          3.1918941504       -0.3021481845       -0.2457384508
 C          4.6706401020       -0.3561702246       -0.2227114086
 C          5.3234666514       -1.5802571784       -0.4804626594
 C          6.6845732607       -1.6681501114       -0.4283562772
 C          7.4707168406       -0.5416822433       -0.1055836290
 C          8.8765115035       -0.6056350624       -0.0172010654
 C          9.6066432571        0.5024019321        0.3102899563
 C          8.9647173160        1.7260647831        0.5587266402
 C          7.6040044097        1.8215089717        0.4766940703
 C          6.8211609729        0.6951413623        0.1468862051
 C          5.4150976437        0.7570145678        0.0745150650
 C          2.5186723099        0.2477241085       -1.3428183530
 C          3.2231214525        0.7468492858       -2.4699812935
 C          2.5647121836        1.3063417672       -3.5208706480
 C          1.1596911424        1.4154832867       -3.4994836949
 C          0.4474805906        0.9371351411       -2.4428950554
 C          1.0900859264        0.3129031170       -1.3412552022
 C         -1.8520314571       -0.8271393913       -1.2194993542
 C         -3.2327052863       -0.8173346349       -1.2216427714
 C         -3.8820946478       -0.1241216202       -0.2096381428
 C         -6.2851729378       -1.8439667440       -1.0595509682
 C         -7.3104667065       -2.3676810666       -1.8251333648
 H         -9.1341769160       -1.9636073349       -2.8707875514
 H         -9.1189829399        0.4409952412       -2.3169181463
 H         -7.2765180731        1.3896450603       -0.9819201538
 H         -7.5155862436        0.9493009406        1.4335042570
 H         -7.2935284262        2.3445583630        3.4516852950
 H         -5.0930813596        2.9982178464        4.3038954627
 H         -3.0270545481        2.2509522093        3.1658332712
 H         -1.1925767285        1.1128270800        1.4863791566
 H         -0.7232342644       -1.3932512244        1.9035298481
 H          0.4832896490       -2.3187755183        3.8184756213
 H          2.9505172437       -2.2621235294        3.8871567197
 H          4.2152740176       -1.3394055914        1.9980257382
 H          4.7229734530       -2.4465952516       -0.7188230444
 H          7.1805834127       -2.6077706039       -0.6273467948
 H          9.3653897146       -1.5504252014       -0.2090682974
 H         10.6829745716        0.4452766718        0.3810445465
 H          9.5574445104        2.5917266961        0.8163314422
 H          7.1047102388        2.7610314552        0.6673988238
 H          4.9209274011        1.6980303688        0.2732844149
 H          4.3006169374        0.6720205739       -2.4750561099
 H          3.1120795948        1.6794777211       -4.3741253551
 H          0.6533807905        1.8851018302       -4.3303208331
 H         -0.6276166022        1.0325667375       -2.4263927920
 H         -1.3245240902       -1.3804244066       -1.9829666889
 H         -3.7852565612       -1.3326367069       -1.9926951076
 H         -5.4990005627       -2.4825514742       -0.6850936016
 H         -7.3152317480       -3.4214271899       -2.0615634646
  70
  -106.229923544700       5.705280456263770E-002 !
 C         -8.3041930464       -2.2910761212       -1.5816158913
 C         -8.2945518362       -0.9190892942       -1.7713188087
 C         -7.2759612071       -0.1490502943       -1.2415841910
 C         -6.2601384348       -0.7513337528       -0.5046922179
 N         -5.2300379022        0.0282221008        0.0400987221
 C         -5.3973382210        1.1689253640        0.7992960556
 C         -6.5653008897        1.7709323873        1.2457375404
 C         -6.4488915116        2.9043976582        2.0270580371
 C         -5.2040420317        3.4294228390        2.3681123713
 C         -4.0383758613        2.8224978181        1.9462326251
 C         -4.1298870525        1.6815483259        1.1600204848
 C         -3.1547841433        0.8022535390        0.5794251790
 C         -1.7674931314        0.7976411883        0.5639617981
 C         -1.1075184431       -0.2090679937       -0.1224728398
 C          0.3731879573       -0.2364685774       -0.1597119969
 C          1.0788478679       -1.0768901159        0.7100342394
 C          0.4119562393       -1.9081532673        1.6478104703
 C          1.1084864221       -2.7186654604        2.4899288191
 C          2.5175810461       -2.7478857252        2.4476819183
 C          3.1953278035       -1.9632928519        1.5665690644
 C          2.5073883496       -1.1023158295        0.6716564894
 C          3.1928822751       -0.2864310122       -0.2360449213
 C          4.6729438411       -0.3203734842       -0.2848075130
 C          5.3152859168       -1.2189271766       -1.1619955007
 C          6.6775573155       -1.2716516477       -1.2294203722
 C          7.4751238460       -0.4295078359       -0.4260579275
 C          8.8840036114       -0.4590713350       -0.4725708734
 C          9.6263139293        0.3721248714        0.3184815971
 C          8.9937226349        1.2704465776        1.1922944791
 C          7.6299674588        1.3227176587        1.2609818068
 C          6.8350602608        0.4782055092        0.4579266446
 C          5.4268492240        0.5080258807        0.5062726951
 C          2.4884278924        0.5538646526       -1.1064075111
 C          3.1574596148        1.3894750403       -2.0390143179
 C          2.4617048602        2.1980139409       -2.8836887435
 C          1.0522762290        2.2198152005       -2.8490108671
 C          0.3735935334        1.4351732815       -1.9685819804
 C          1.0599704722        0.5801550828       -1.0668871424
 C         -1.8360918818       -1.1932936655       -0.7992471230
 C         -3.2168487423       -1.2033434985       -0.8035069324
 C         -3.8769535869       -0.2078150211       -0.0972182178
 C         -6.2733591497       -2.1296206054       -0.3117867024
 C         -7.2906101968       -2.8927519901       -0.8543981494
 H         -9.0996601394       -2.8895054142       -1.9990002376
 H         -9.0807779057       -0.4459071585       -2.3407015675
 H         -7.2524882065        0.9179917055       -1.4057390188
 H         -7.5343605662        1.3620027084        1.0024904776
 H         -7.3434042695        3.3922529379        2.3850936665
 H         -5.1559652564        4.3178216685        2.9798787820
 H         -3.0729907638        3.2182170169        2.2237562750
 H         -1.2068978829        1.5661596545        1.0749276333
 H         -0.6672032134       -1.8799894885        1.6797825869
 H          0.5887675535       -3.3449146151        3.2002825370
 H          3.0530775966       -3.3974892590        3.1246055813
 H          4.2748826509       -1.9811600048        1.5337194168
 H          4.7064750687       -1.8645192753       -1.7786405459
 H          7.1661895135       -1.9623917976       -1.9021328402
 H          9.3658417712       -1.1526572962       -1.1471591204
 H         10.7053097766        0.3439413334        0.2781315743
 H          9.5960980359        1.9203936211        1.8101383788
 H          7.1379820231        2.0124009408        1.9321711492
 H          4.9400512439        1.1999169093        1.1795532203
 H          4.2371857219        1.3689177354       -2.0642468936
 H          2.9827541617        2.8287752267       -3.5891149122
 H          0.5172841933        2.8658988059       -3.5296847325
 H         -0.7059839304        1.4480378710       -1.9415144315
 H         -1.2955292144       -1.9577492390       -1.3383518556
 H         -3.7611688120       -1.9579343189       -1.3509341849
 H         -5.4940263390       -2.5921767070        0.2753402317
 H         -7.2964322959       -3.9616001857       -0.7002296503
  70
  -106.229763275300       4.815288158735387E-002 !
 C         -8.2519888156       -1.6309168256       -2.3455131610
 C         -7.2093602258       -0.9355801299       -2.9354011993
 C         -6.2120391801       -0.3799685530       -2.1556220801
 C         -6.2478861780       -0.5280083875       -0.7720424539
 N         -5.2352590651        0.0292145969        0.0217521693
 C         -5.4237798649        0.8375675982        1.1248528133
 C         -6.6021290587        1.3158118568        1.6801395605
 C         -6.5064982730        2.1425914531        2.7829528467
 C         -5.2717568713        2.4968939076        3.3227011784
 C         -4.0952572407        2.0434316170        2.7609784182
 C         -4.1657484608        1.2118573865        1.6511492989
 C         -3.1744425559        0.5890101255        0.8197243357
 C         -1.7874709263        0.5720043956        0.8422087658
 C         -1.1074904356       -0.1595725983       -0.1201017090
 C          0.3698897064       -0.1910864794       -0.1338183729
 C          1.0694738679       -0.8117840103        0.9117454362
 C          0.4006636961       -1.4419485261        1.9939324258
 C          1.0940478203       -2.0320426096        3.0054949802
 C          2.5034720122       -2.0345285302        2.9984093476
 C          3.1837131525       -1.4631676625        1.9680215402
 C          2.4985573668       -0.8438858603        0.8898635629
 C          3.1919384752       -0.2768554084       -0.1856360401
 C          4.6710449450       -0.3423371901       -0.2288116228
 C          5.2940022753       -1.4727285737       -0.7981061500
 C          6.6546520583       -1.5559952902       -0.8687512875
 C          7.4699406108       -0.5166317655       -0.3729597762
 C          8.8776283770       -0.5694895962       -0.4363723989
 C          9.6375817409        0.4554818721        0.0531752898
 C          9.0245670831        1.5791897503        0.6299117718
 C          7.6625776412        1.6604487323        0.7058106857
 C          6.8496628254        0.6207640750        0.2074822763
 C          5.4424954245        0.6787695215        0.2638392884
 C          2.4959485474        0.3383094421       -1.2327195241
 C          3.1761203017        0.9168459355       -2.3364414453
 C          2.4935891879        1.5327066243       -3.3392506942
 C          1.0874788663        1.6182785019       -3.2922135870
 C          0.3985561395        1.0683995362       -2.2554472090
 C          1.0681090108        0.3938902144       -1.2006517582
 C         -1.8219005195       -0.8830138303       -1.0834949122
 C         -3.2014112394       -0.8841721082       -1.1212382149
 C         -3.8786977875       -0.1277776744       -0.1750027686
 C         -7.2932854293       -1.2316903106       -0.1811323050
 C         -8.2919602284       -1.7743877242       -0.9684879138
 H         -9.0314842276       -2.0590177013       -2.9571398990
 H         -7.1766593004       -0.8171272051       -4.0083553131
 H         -5.4093079652        0.1817499975       -2.6096882400
 H         -7.5630424652        1.0618609161        1.2587546260
 H         -7.4093880024        2.5256101504        3.2348781509
 H         -5.2396567359        3.1422267107        4.1878132334
 H         -3.1374928301        2.3293041775        3.1692667266
 H         -1.2416805141        1.1245591676        1.5923800111
 H         -0.6787827641       -1.4495769689        1.9980916011
 H          0.5693449611       -2.5074975323        3.8213933220
 H          3.0360862765       -2.5013097536        3.8139774411
 H          4.2636964932       -1.4713402546        1.9516564288
 H          4.6713922232       -2.2694656654       -1.1794621608
 H          7.1281356517       -2.4225619932       -1.3085643007
 H          9.3441246742       -1.4370695142       -0.8815995841
 H         10.7155025748        0.4090928748        0.0001596576
 H          9.6407164901        2.3794087162        1.0132854877
 H          7.1856311971        2.5235249491        1.1485572387
 H          4.9708113676        1.5472021248        0.7025477544
 H          4.2543809138        0.8588014830       -2.3624408524
 H          3.0227671639        1.9665714792       -4.1750809313
 H          0.5624846534        2.1274769657       -4.0873322098
 H         -0.6776955594        1.1436124644       -2.2167083135
 H         -1.2691472436       -1.4634085253       -1.8079441225
 H         -3.7329217750       -1.4658101058       -1.8591692725
 H         -7.3082747098       -1.3605089163        0.8909355512
 H         -9.1003996730       -2.3197641964       -0.5044761594
