  70
       -106.66792606
 C         -8.2781091492       -2.4893665031       -1.3916687207
 C         -8.3084332831       -1.1254934531       -1.6311193857
 C         -7.2975847659       -0.3113437899       -1.1551611055
 C         -6.2496318149       -0.8602823473       -0.4215807528
 N         -5.2302526597       -0.0346162754        0.0733245931
 C         -5.4149676423        1.1272954974        0.7959294072
 C         -6.5907924239        1.7156427891        1.2398907039
 C         -6.4913885319        2.8813337798        1.9748412046
 C         -5.2553484168        3.4508599981        2.2737432515
 C         -4.0811165529        2.8571035254        1.8566378128
 C         -4.1556702798        1.6845699587        1.1165178150
 C         -3.1675947608        0.8107795282        0.5494569542
 C         -1.7815036789        0.8408886935        0.5119205094
 C         -1.1036219307       -0.1685107516       -0.1554599166
 C          0.3734399540       -0.1619606011       -0.2108744930
 C          1.1025421252       -1.1564027209        0.4569345642
 C          0.4598172121       -2.1626537429        1.2252134933
 C          1.1731156740       -3.1378162592        1.8510104718
 C          2.5777683404       -3.1710833076        1.7426146223
 C          3.2344107257       -2.2112525113        1.0362401375
 C          2.5306520504       -1.1612660644        0.3893721263
 C          3.1977161308       -0.1510806453       -0.3176835878
 C          4.6739521689       -0.1470834970       -0.3845479288
 C          5.3161933780       -0.4162100998       -1.6125287259
 C          6.6781332313       -0.4226493703       -1.7009785229
 C          7.4789213441       -0.1556652378       -0.5701756744
 C          8.8875763044       -0.1513703836       -0.6287346807
 C          9.6319598283        0.1111161404        0.4872562189
 C          9.0015537057        0.3804914447        1.7124782250
 C          7.6379493583        0.3837548261        1.8016664767
 C          6.8410192801        0.1173841638        0.6682903961
 C          5.4333829397        0.1122782403        0.7290736402
 C          2.4703236302        0.8549592561       -0.9690150424
 C          3.1175748255        1.9119913262       -1.6618304021
 C          2.4040681934        2.8714401622       -2.3112956883
 C          0.9955618613        2.8292546840       -2.3138345423
 C          0.3368468333        1.8459453892       -1.6423192728
 C          1.0414569538        0.8404793322       -0.9292438620
 C         -1.8198205729       -1.1898831809       -0.7918512248
 C         -3.1992992294       -1.2365972021       -0.7710051882
 C         -3.8744028705       -0.2388741732       -0.0817547710
 C         -6.2219446776       -2.2306298395       -0.1797591467
 C         -7.2316965510       -3.0384112858       -0.6693471515
 H         -9.0676320333       -3.1224208575       -1.7671053936
 H         -9.1189407722       -0.6933000363       -2.1989135473
 H         -7.3054679414        0.7490814676       -1.3588489165
 H         -7.5527167758        1.2732118262        1.0291777032
 H         -7.3925371695        3.3601533373        2.3285297908
 H         -5.2206236436        4.3645884602        2.8480043246
 H         -3.1220145660        3.2881608190        2.1014019146
 H         -1.2342340147        1.6352478383        0.9971907200
 H         -0.6163730551       -2.1370121081        1.3073162470
 H          0.6691281014       -3.8958155836        2.4327183695
 H          3.1278689725       -3.9634467203        2.2288091556
 H          4.3108250893       -2.2361837028        0.9557706529
 H          4.7065551690       -0.6229441363       -2.4808269338
 H          7.1642612191       -0.6328422096       -2.6433794664
 H          9.3678602579       -0.3601936552       -1.5743276937
 H         10.7109120082        0.1132558349        0.4354384628
 H          9.6053888664        0.5870314915        2.5837868169
 H          7.1473257474        0.5906331758        2.7423210426
 H          4.9499362629        0.3239766421        1.6727923053
 H          4.1969177045        1.9438834910       -1.6609391444
 H          2.9110693867        3.6698754906       -2.8331823883
 H          0.4443388402        3.5871022642       -2.8512023895
 H         -0.7422398826        1.8154167468       -1.6437525019
 H         -1.2694770404       -1.9525395739       -1.3236611906
 H         -3.7324340466       -2.0202945350       -1.2877562365
 H         -5.4171043618       -2.6519600054        0.4039769434
 H         -7.2058014923       -4.1007605166       -0.4770381235
  70
       -106.66783731
 C         -8.2942936167       -2.2388895897       -1.6888484045
 C         -8.2937216697       -0.8584516456       -1.8020099582
 C         -7.2791351460       -0.1124112445       -1.2317595054
 C         -6.2584999744       -0.7481286607       -0.5304737071
 N         -5.2303443905        0.0055335454        0.0529703825
 C         -5.3980576708        1.1065723353        0.8686316315
 C         -6.5659105994        1.6826967844        1.3480723286
 C         -6.4496999218        2.7785616479        2.1813845352
 C         -5.2051715594        3.2913430380        2.5413387568
 C         -4.0393805139        2.7079152068        2.0877925285
 C         -4.1306878929        1.6043008062        1.2499722151
 C         -3.1552630471        0.7573351680        0.6234125819
 C         -1.7682780234        0.7554267525        0.6058350907
 C         -1.1060260806       -0.2126687963       -0.1338253858
 C          0.3719571512       -0.2394710608       -0.1711894812
 C          1.0683032658       -1.2773785428        0.4636869432
 C          0.3923094234       -2.3022336299        1.1765037793
 C          1.0776672864       -3.2971142141        1.8026244889
 C          2.4862188236       -3.3223017120        1.7659882190
 C          3.1730569020       -2.3513108321        1.1050362796
 C          2.4969625419       -1.3025388771        0.4276171615
 C          3.1956369103       -0.2888877126       -0.2423563779
 C          4.6730544324       -0.3189888891       -0.2807614808
 C          5.3312552108       -1.2963877062       -1.0574862510
 C          6.6943076654       -1.3406287514       -1.1139246874
 C          7.4796224669       -0.4154672923       -0.3940599455
 C          8.8889558920       -0.4351074752       -0.4298703644
 C          9.6181435305        0.4768493839        0.2805535812
 C          8.9712960051        1.4499298310        1.0589346517
 C          7.6066715934        1.4955628226        1.1137717577
 C          6.8251835253        0.5688210236        0.3921161320
 C          5.4169312151        0.5922530455        0.4262479290
 C          2.5004794403        0.7490426178       -0.8783289169
 C          3.1770994759        1.7741123921       -1.5906830895
 C          2.4919870102        2.7691857764       -2.2166594741
 C          1.0834887828        2.7942874784       -2.1802524733
 C          0.3965376988        1.8235075603       -1.5191357352
 C          1.0714266650        0.7740036956       -0.8416957186
 C         -1.8364648543       -1.1594385401       -0.8618983294
 C         -3.2168313083       -1.1720504125       -0.8634695044
 C         -3.8774232423       -0.2181275319       -0.1021898500
 C         -6.2635437266       -2.1349878512       -0.4129109801
 C         -7.2765729689       -2.8734425485       -0.9960371689
 H         -9.0859499885       -2.8183683738       -2.1388263166
 H         -9.0830650629       -0.3594871665       -2.3443160562
 H         -7.2626244900        0.9621607614       -1.3366419039
 H         -7.5346850339        1.2828271371        1.0892183993
 H         -7.3441269489        3.2460792023        2.5656070147
 H         -5.1572572261        4.1511325479        3.1927513289
 H         -3.0741082077        3.0934265357        2.3797632599
 H         -1.2087246325        1.4939129905        1.1603695451
 H         -0.6861160134       -2.2724577502        1.2189217500
 H          0.5488446411       -4.0699215115        2.3412864116
 H          3.0149081916       -4.1139980898        2.2765022654
 H          4.2527782359       -2.3608008524        1.0925889733
 H          4.7333285671       -2.0053101577       -1.6122881429
 H          7.1931880249       -2.0884584511       -1.7142475679
 H          9.3819468502       -1.1864444965       -1.0306179962
 H         10.6976516938        0.4557212716        0.2493730825
 H          9.5634015949        2.1620230949        1.6150164707
 H          7.1033813060        2.2427978900        1.7110337807
 H          4.9203785453        1.3413608224        1.0274313938
 H          4.2556307890        1.7460194581       -1.6331145972
 H          3.0215723031        3.5416976408       -2.7549101527
 H          0.5548409417        3.5858494788       -2.6909976644
 H         -0.6829204566        1.8329953550       -1.5065327608
 H         -1.2965976138       -1.8904879740       -1.4461487090
 H         -3.7609502056       -1.8962063120       -1.4507103788
 H         -5.4806508610       -2.6242852669        0.1472248423
 H         -7.2749467283       -3.9492394058       -0.9018605961
  70
       -106.66770648
 C         -8.2798582619       -1.3150021935       -2.4862694211
 C         -7.2282452645       -0.5677960946       -2.9906388791
 C         -6.2200121466       -0.1291005250       -2.1527390851
 C         -6.2544537091       -0.4464322057       -0.7977821995
 N         -5.2332821088       -0.0026667578        0.0539874310
 C         -5.4092468860        0.6710047283        1.2461149978
 C         -6.5807546815        1.0837409134        1.8648045276
 C         -6.4723988954        1.7711016149        3.0583827629
 C         -5.2317747515        2.0530762757        3.6264627853
 C         -4.0619553146        1.6673299204        3.0034637765
 C         -4.1452645318        0.9761173430        1.8020829255
 C         -3.1635318690        0.4536169887        0.8937514431
 C         -1.7764968052        0.4358799640        0.8983847092
 C         -1.1071739174       -0.1806662014       -0.1485778771
 C          0.3696250011       -0.1975406799       -0.1863205224
 C          1.0918450311       -0.9021516701        0.7883441431
 C          0.4443977361       -1.6444302415        1.8109877581
 C          1.1567908215       -2.3246595497        2.7499363332
 C          2.5658154041       -2.3145212370        2.7212005554
 C          3.2260550499       -1.6341263522        1.7454717308
 C          2.5212201854       -0.9096886223        0.7484618496
 C          3.1931048188       -0.2311300960       -0.2757216138
 C          4.6715224619       -0.2548077590       -0.3376237599
 C          5.3114903180       -1.1027017696       -1.2662920624
 C          6.6731361399       -1.1386493447       -1.3537137061
 C          7.4734569022       -0.3246902936       -0.5243122511
 C          8.8815445176       -0.3301575241       -0.5976197592
 C          9.6262166714        0.4762570404        0.2166687254
 C          8.9967388494        1.3232561385        1.1426484315
 C          7.6339256376        1.3495314036        1.2397207584
 C          6.8365662559        0.5308861352        0.4124936590
 C          5.4291483044        0.5400586225        0.4844929924
 C          2.4736998835        0.4659252961       -1.2546753737
 C          3.1314863815        1.1732047047       -2.2952503716
 C          2.4276610761        1.8699963932       -3.2279711664
 C          1.0205814158        1.9159967502       -3.1659880750
 C          0.3531676888        1.2534402620       -2.1823647314
 C          1.0457141863        0.4933498810       -1.2035004181
 C         -1.8331454283       -0.7935485156       -1.1780335310
 C         -3.2129299613       -0.7881740188       -1.2021991227
 C         -3.8791663449       -0.1412068685       -0.1707733145
 C         -7.3080788962       -1.2036302212       -0.2939208895
 C         -8.3171387043       -1.6292416194       -1.1377186217
 H         -9.0681513305       -1.6512548882       -3.1425045284
 H         -7.1965011329       -0.3170273905       -4.0407167368
 H         -5.4102230494        0.4727724633       -2.5374753918
 H         -7.5463557904        0.8858836270        1.4245175915
 H         -7.3700029010        2.1002300676        3.5607143155
 H         -5.1899809923        2.5894435605        4.5625894711
 H         -3.0995525745        1.8991626007        3.4342938877
 H         -1.2225209188        0.9016812854        1.6997194098
 H         -0.6347744786       -1.6669339972        1.8264866962
 H          0.6477295813       -2.8849014302        3.5205800844
 H          3.1147255286       -2.8613577112        3.4737525568
 H          4.3054558142       -1.6383239700        1.7100373567
 H          4.7007936032       -1.7246009795       -1.9052070904
 H          7.1590155376       -1.7917434300       -2.0649912157
 H          9.3607811360       -0.9843514937       -1.3123185993
 H         10.7045801296        0.4684967220        0.1541118767
 H          9.6008363685        1.9548471828        1.7776279662
 H          7.1443939955        2.0000430308        1.9507450083
 H          4.9453314161        1.1925774374        1.1981820192
 H          4.2107588126        1.1523777863       -2.3284443498
 H          2.9410263273        2.4027610046       -4.0148429212
 H          0.4774586046        2.4895533899       -3.9029073806
 H         -0.7237532162        1.3041423689       -2.1280048897
 H         -1.2892078175       -1.2913588878       -1.9677043027
 H         -3.7531466196       -1.2818009753       -1.9958951119
 H         -7.3223417148       -1.4645257532        0.7540136645
 H         -9.1327675101       -2.2153584350       -0.7410030587
  70
       -106.66766011
 C         -8.2795760746       -2.2631745791       -1.7004097680
 C         -8.3026299033       -0.8800085639       -1.7691126109
 C         -7.2916701778       -0.1360422549       -1.1896254786
 C         -6.2510739705       -0.7768742130       -0.5231328812
 N         -5.2283216548       -0.0244291777        0.0712182023
 C         -5.4057528817        1.0471311308        0.9232637580
 C         -6.5777029513        1.5843112939        1.4372455215
 C         -6.4706563467        2.6527192785        2.3064949440
 C         -5.2310061298        3.1764176423        2.6683925929
 C         -4.0608830712        2.6319015185        2.1793492801
 C         -4.1430927104        1.5567660898        1.3042238108
 C         -3.1603493364        0.7484544045        0.6395098595
 C         -1.7735571629        0.7731675713        0.6054990684
 C         -1.1047794708       -0.1640689018       -0.1656619056
 C          0.3753999628       -0.1658205389       -0.2184081432
 C          1.0989845684       -1.0830969318        0.5534040389
 C          0.4453052199       -2.0088144640        1.4084198285
 C          1.1520039226       -2.9108445615        2.1417551887
 C          2.5582868081       -2.9485368552        2.0555203671
 C          3.2234076902       -2.0697796171        1.2569347638
 C          2.5273692103       -1.0954186130        0.4941136485
 C          3.1975317694       -0.1723971435       -0.3219050727
 C          4.6734532654       -0.1742681320       -0.3849037076
 C          5.3198681423       -0.5468041070       -1.5832855573
 C          6.6820177102       -0.5526795926       -1.6691220024
 C          7.4791222085       -0.1833140446       -0.5650857389
 C          8.8878180602       -0.1751315650       -0.6221575592
 C          9.6286322452        0.1879212205        0.4673724563
 C          8.9944667053        0.5591179130        1.6637652674
 C          7.6307931965        0.5617684121        1.7506849213
 C          6.8373264352        0.1925673145        0.6439247171
 C          5.4297577563        0.1852789825        0.7029052411
 C          2.4724996699        0.7537030397       -1.0860632047
 C          3.1169648990        1.7233150864       -1.8988458076
 C          2.4006143430        2.6051458424       -2.6480767731
 C          0.9915378329        2.5776370604       -2.6286123928
 C          0.3348605056        1.6806559193       -1.8442951100
 C          1.0438812320        0.7495121038       -1.0407520415
 C         -1.8246044072       -1.1054366502       -0.9097248689
 C         -3.2047389711       -1.1415699727       -0.8982220079
 C         -3.8731716087       -0.2192647593       -0.1054715927
 C         -6.2321378855       -2.1667594056       -0.4506948974
 C         -7.2413754476       -2.9026620190       -1.0435286790
 H         -9.0682231126       -2.8410892973       -2.1576800094
 H         -9.1075664155       -0.3768446323       -2.2840121244
 H         -7.2939938128        0.9415236330       -1.2601513816
 H         -7.5422329167        1.1746416902        1.1777125039
 H         -7.3683391922        3.0895501415        2.7185075740
 H         -5.1907232687        4.0135084162        3.3492549187
 H         -3.0988815209        3.0254958449        2.4712848277
 H         -1.2202522549        1.5098211965        1.1686781782
 H         -0.6327935894       -1.9797984402        1.4645027141
 H          0.6424615567       -3.6082577399        2.7905255055
 H          3.1035657719       -3.6830782970        2.6300404164
 H          4.3004400584       -2.1053372144        1.1897088246
 H          4.7135033439       -0.8346719195       -2.4302187523
 H          7.1708363854       -0.8409851878       -2.5890488979
 H          9.3709038470       -0.4624164636       -1.5452131080
 H         10.7076358706        0.1913918793        0.4173133676
 H          9.5957611212        0.8425492961        2.5154929872
 H          7.1373770634        0.8463907488        2.6694747957
 H          4.9435501540        0.4779971055        1.6231676157
 H          4.1962564435        1.7529971119       -1.9106639173
 H          2.9068733771        3.3344218827       -3.2635721898
 H          0.4400905993        3.2792521806       -3.2373402179
 H         -0.7445826747        1.6611831559       -1.8188371361
 H         -1.2772051167       -1.8146451170       -1.5135469086
 H         -3.7424511241       -1.8603495769       -1.4978476243
 H         -5.4339450420       -2.6609177323        0.0828762616
 H         -7.2217284756       -3.9807631773       -0.9836548551
  70
       -106.66760593
 C         -8.2517021850       -1.3519889804       -2.5175738201
 C         -7.2128831332       -0.5836928210       -3.0166844123
 C         -6.2156887474       -0.1274742589       -2.1747361076
 C         -6.2477915055       -0.4495245428       -0.8209464602
 N         -5.2352641078        0.0065765088        0.0350798990
 C         -5.4240279918        0.6681417533        1.2319530421
 C         -6.6027386989        1.0678543499        1.8454990257
 C         -6.5074184096        1.7488008887        3.0438865866
 C         -5.2726638980        2.0365924610        3.6218157577
 C         -4.0959041514        1.6622698905        3.0050248685
 C         -4.1660847480        0.9775493764        1.7990240855
 C         -3.1745557594        0.4686352333        0.8936124462
 C         -1.7874845905        0.4541273584        0.9111663555
 C         -1.1072045538       -0.1472492284       -0.1372539267
 C          0.3702404578       -0.1712286022       -0.1576152393
 C          1.0744216722       -0.9166040505        0.7996889762
 C          0.4103390383       -1.6811406390        1.7946870182
 C          1.1081342527       -2.3918798633        2.7221475114
 C          2.5175381800       -2.3881589047        2.7121643811
 C          3.1933775366       -1.6884642523        1.7610866549
 C          2.5035534666       -0.9403147878        0.7712441642
 C          3.1924425300       -0.2391583173       -0.2251552301
 C          4.6716635526       -0.2930983656       -0.2790401186
 C          5.2972282218       -1.3400241109       -0.9879633180
 C          6.6579915197       -1.4085748816       -1.0711255229
 C          7.4708059564       -0.4372457422       -0.4493268597
 C          8.8785176805       -0.4763708372       -0.5215548811
 C          9.6360330248        0.4812643628        0.0923326431
 C          9.0204516034        1.5206560448        0.8077736126
 C          7.6583679148        1.5865454341        0.8958958042
 C          6.8479223950        0.6152276537        0.2715355579
 C          5.4406966250        0.6603536665        0.3374150990
 C          2.4918712613        0.5009347368       -1.1846737364
 C          3.1674451318        1.2170261267       -2.2075878265
 C          2.4804334216        1.9522578412       -3.1231252289
 C          1.0741468724        2.0259117576       -3.0630043982
 C          0.3895659929        1.3466865164       -2.1028648177
 C          1.0639253254        0.5466513491       -1.1431562487
 C         -1.8213337130       -0.7456523963       -1.1831069952
 C         -3.2009163096       -0.7472036706       -1.2181095307
 C         -3.8786264519       -0.1191651751       -0.1824996917
 C         -7.2893497155       -1.2262385253       -0.3218727861
 C         -8.2879605417       -1.6686932273       -1.1696999774
 H         -9.0311251126       -1.7021816135       -3.1769945836
 H         -7.1830985995       -0.3303072452       -4.0660840539
 H         -5.4159822551        0.4901924041       -2.5555754839
 H         -7.5637413515        0.8656580989        1.3971671220
 H         -7.4105812215        2.0681664261        3.5423364389
 H         -5.2407956537        2.5673901626        4.5615720709
 H         -3.1381923108        1.8977762860        3.4444106874
 H         -1.2418752815        0.9093652075        1.7242037655
 H         -0.6690616256       -1.6932857226        1.7998692949
 H          0.5869970558       -2.9687165358        3.4723048638
 H          3.0536777935       -2.9523811901        3.4611113136
 H          4.2733416887       -1.6904466373        1.7417961205
 H          4.6765116785       -2.0844351410       -1.4659056456
 H          7.1334660523       -2.2107428799       -1.6179440686
 H          9.3469958798       -1.2788850618       -1.0738591921
 H         10.7139824209        0.4460027208        0.0318542458
 H          9.6347001265        2.2682413849        1.2881701179
 H          7.1794495748        2.3848668416        1.4451891053
 H          4.9670125311        1.4645190697        0.8833707176
 H          4.2458379653        1.1667856563       -2.2427427254
 H          3.0061441940        2.4903778352       -3.8983253861
 H          0.5455270689        2.6296511497       -3.7863130967
 H         -0.6868480801        1.4123529400       -2.0529041319
 H         -1.2682519318       -1.2276374417       -1.9762096390
 H         -3.7321159175       -1.2327859568       -2.0227120881
 H         -7.3013886893       -1.4897277737        0.7253028816
 H         -9.0934089853       -2.2714291366       -0.7769163621
  70
       -106.66748416
 C         -8.3323809721       -1.2873521882       -2.4380113988
 C         -8.3291628708        0.0121743667       -1.9587272567
 C         -7.3023875804        0.4527622224       -1.1444862863
 C         -6.2720180232       -0.4150137228       -0.7939434224
 N         -5.2316592600        0.0274309387        0.0351338155
 C         -5.3835882552        0.6771219379        1.2441528686
 C         -6.5415258565        0.9855605442        1.9440225653
 C         -6.4079618204        1.6130559368        3.1678620118
 C         -5.1561451033        1.9235715589        3.6950569548
 C         -3.9998743132        1.6002747692        3.0139736668
 C         -4.1091159286        0.9694626873        1.7818931837
 C         -3.1464549268        0.4684947888        0.8420586755
 C         -1.7606690983        0.4619615936        0.8157976058
 C         -1.1072251839       -0.1242892513       -0.2594957067
 C          0.3679189010       -0.1745507299       -0.2824891937
 C          1.0502091178       -0.8764340413        0.7247845070
 C          0.3651180355       -1.5935243353        1.7410955765
 C          1.0404049750       -2.2389874943        2.7309604541
 C          2.4487396718       -2.2144493199        2.7663584064
 C          3.1453291518       -1.5713833215        1.7906935987
 C          2.4791090231       -0.8989634063        0.7322579215
 C          3.1924597342       -0.2558168230       -0.2874504785
 C          4.6714531810       -0.3061889561       -0.2740621525
 C          5.3284108197       -1.4856643047       -0.6842470429
 C          6.6899647710       -1.5737672894       -0.6460351801
 C          7.4724914615       -0.4933399104       -0.1861847416
 C          8.8787246781       -0.5620488204       -0.1090659945
 C          9.6053223991        0.4992707727        0.3532598661
 C          8.9592452516        1.6795366244        0.7541305577
 C          7.5979862301        1.7788799536        0.6871728980
 C          6.8187429111        0.6994465279        0.2203491674
 C          5.4122862890        0.7640863647        0.1588558928
 C          2.5145673290        0.4243045705       -1.3058159698
 C          3.2144583308        1.0635352230       -2.3628909862
 C          2.5514484671        1.7474788435       -3.3342519294
 C          1.1460691064        1.8472798096       -3.2968083838
 C          0.4381723599        1.2374668095       -2.3071363813
 C          1.0857469138        0.4828740958       -1.2935020107
 C         -1.8516459990       -0.6755833275       -1.3100965719
 C         -3.2323486846       -0.6712898496       -1.3084809336
 C         -3.8820619958       -0.1129294455       -0.2164596576
 C         -6.2804358557       -1.7227363927       -1.2706554408
 C         -7.3054718223       -2.1507037546       -2.0939206557
 H         -9.1331571764       -1.6264228720       -3.0774261155
 H         -9.1259810653        0.6899512743       -2.2268527549
 H         -7.2841033389        1.4715871021       -0.7869344315
 H         -7.5158516384        0.7312979305        1.5547735533
 H         -7.2945049330        1.8637915917        3.7313698399
 H         -5.0946291555        2.4146876427        4.6547117526
 H         -3.0283766220        1.8243345955        3.4282770753
 H         -1.1934164422        0.9130306107        1.6161926432
 H         -0.7134117165       -1.6235965848        1.7154068061
 H          0.5011316886       -2.7766100694        3.4971915036
 H          2.9682745419       -2.7188136415        3.5679322944
 H          4.2250575012       -1.5616097913        1.8069070823
 H          4.7307221897       -2.3178133520       -1.0281157334
 H          7.1891433921       -2.4790220685       -0.9620169137
 H          9.3708079901       -1.4733538573       -0.4186148443
 H         10.6820282360        0.4381820330        0.4143443368
 H          9.5492152974        2.5085732387        1.1170216513
 H          7.0955047466        2.6850613632        0.9949278018
 H          4.9149416453        1.6707607510        0.4747895621
 H          4.2922206037        0.9943816341       -2.3792578456
 H          3.0953834340        2.2267689587       -4.1350645513
 H          0.6360157920        2.4151337519       -4.0613799081
 H         -0.6372448133        1.3256400914       -2.2768566147
 H         -1.3237773065       -1.1267399257       -2.1377940219
 H         -3.7846922380       -1.0882738567       -2.1369806492
 H         -5.4909301644       -2.3999278732       -0.9805378047
 H         -7.3067086797       -3.1665657031       -2.4604254467
  70
       -106.66732123
 C         -8.2975027450       -2.1078632262       -1.8489244409
 C         -8.2942754490       -0.7228488280       -1.8612818069
 C         -7.2779163391       -0.0223341519       -1.2388679215
 C         -6.2578719135       -0.7093713461       -0.5868400750
 N         -5.2300120031       -0.0012943027        0.0517071117
 C         -5.4006534066        1.0319508647        0.9510734765
 C         -6.5702671416        1.5663973711        1.4728300227
 C         -6.4571225640        2.5909395786        2.3927582546
 C         -5.2138448044        3.0736816256        2.7962929565
 C         -4.0464527317        2.5312001426        2.2982691509
 C         -4.1346772910        1.4999771677        1.3724910055
 C         -3.1569990167        0.7068292794        0.6824638072
 C         -1.7697379200        0.7106410310        0.6643292588
 C         -1.1068563421       -0.1967639936       -0.1464892248
 C          0.3738714750       -0.2123311215       -0.1892886065
 C          1.0850868104       -1.1539949713        0.5644784185
 C          0.4238745157       -2.1016290814        1.3890722730
 C          1.1257694381       -3.0101327552        2.1192860887
 C          2.5348834278       -3.0271935466        2.0714010463
 C          3.2072778424       -2.1330544177        1.2970061374
 C          2.5136382207       -1.1676984831        0.5208858910
 C          3.1935851234       -0.2390832369       -0.2758811653
 C          4.6736717302       -0.2596648065       -0.3309461853
 C          5.3180338543       -1.0354481197       -1.3170590338
 C          6.6803733731       -1.0728093991       -1.3928516272
 C          7.4759892845       -0.3368638439       -0.4894750451
 C          8.8848806635       -0.3537194435       -0.5416345998
 C          9.6252622050        0.3726909589        0.3482186762
 C          8.9906444376        1.1487216516        1.3309390024
 C          7.6268258819        1.1854646807        1.4079279109
 C          6.8338802990        0.4471432400        0.5045483836
 C          5.4256604944        0.4640218136        0.5585577800
 C          2.4835745149        0.7025403137       -1.0302775094
 C          3.1469190761        1.6538333337       -1.8491909389
 C          2.4458026592        2.5607110762       -2.5821938364
 C          1.0363707000        2.5713823252       -2.5427655057
 C          0.3630390890        1.6772778675       -1.7690537202
 C          1.0551048614        0.7169553917       -0.9854411167
 C         -1.8325837353       -1.0895193884       -0.9426364569
 C         -3.2132894089       -1.1053151287       -0.9459516041
 C         -3.8762091492       -0.2115429348       -0.1168751378
 C         -6.2646441612       -2.1010606353       -0.5721080596
 C         -7.2797218643       -2.7930686791       -1.2064096515
 H         -9.0912479653       -2.6515491591       -2.3382804863
 H         -9.0837976584       -0.1842495849       -2.3640889550
 H         -7.2594679072        1.0570425468       -1.2649833615
 H         -7.5380540629        1.1875344667        1.1807330403
 H         -7.3529820766        3.0247658181        2.8117760197
 H         -5.1683277884        3.8765884196        3.5167725741
 H         -3.0822081798        2.8925529496        2.6226732818
 H         -1.2114028018        1.4099380071        1.2686630947
 H         -0.6553259087       -2.0827763710        1.4261068284
 H          0.6103377955       -3.7246268979        2.7443672455
 H          3.0746842578       -3.7556944366        2.6586560756
 H          4.2868267069       -2.1415812182        1.2604199951
 H          4.7107166316       -1.5995156914       -2.0103731647
 H          7.1705619719       -1.6694021752       -2.1493023138
 H          9.3682836850       -0.9529255784       -1.3002994319
 H         10.7042809343        0.3548913129        0.3028730131
 H          9.5915098391        1.7169249144        2.0260103577
 H          7.1332854041        1.7811889798        2.1627379454
 H          4.9373022892        1.0616916567        1.3157163873
 H          4.2266674945        1.6416634384       -1.8785677768
 H          2.9625556709        3.2790549148       -3.2018120320
 H          0.4970816407        3.2968751581       -3.1341916418
 H         -0.7165230523        1.6815841138       -1.7388429651
 H         -1.2898528967       -1.7760979275       -1.5761089349
 H         -3.7554895862       -1.7860526557       -1.5846875655
 H         -5.4820231145       -2.6314268276       -0.0503305083
 H         -7.2805333716       -3.8728756831       -1.1904577321
