89
 energy: -139.137064416714 gnorm: 0.000112568959 xtb: 6.7.1 (edcfbbe)
C            7.42827991037354        4.79194647053000        2.30151264534329
C            8.18885056034308        3.80947310010264        1.68353835642820
C            7.58408263701615        2.68682799951765        1.16158217743992
C            6.19449640981813        2.50801688629847        1.24484414304665
C            5.60492029614362        1.30573695585029        0.68646992383674
C            4.29441801892568        0.91528366138874        0.89765584351746
C            3.83811502579472       -0.27707664888627        0.30768181308766
C            2.51515017424352       -0.79765367475544        0.44862022820200
C            1.49310600242732       -0.15437039689521        1.18134385356093
C            0.23878319781485       -0.70003457253385        1.28307267563260
C           -0.06355474035756       -1.91803519970028        0.66209479568374
N           -1.34209205959235       -2.47600246748099        0.77546274751882
C           -1.61980388775390       -3.77829381657592        1.14728658393885
C           -0.75070148859903       -4.79433281603064        1.51989084900370
C           -1.29904162773712       -6.01576098434260        1.87051343430697
C           -2.67579842914351       -6.22214593843640        1.86197501729212
C           -3.54847498065144       -5.20361490649711        1.51713524503411
C           -3.02157594823500       -3.97148274942390        1.16209142518837
C           -3.61072849107225       -2.71410328457420        0.78159840734059
C           -4.92124898319168       -2.29819215117010        0.61674338420538
C           -5.12875362813563       -0.98542550749656        0.21680886212215
C           -4.04076033520509       -0.11550285405930       -0.03114235132365
C           -2.73492966610955       -0.51040331519755        0.12152761029698
C           -2.52679115048416       -1.82170202690383        0.55251286678476
C           -4.54029003569128        1.24119675368106       -0.46486503120837
C           -4.06111674256975        2.36301948424274        0.42788847107469
C           -4.24051175424566        2.51116688740420        1.78601686341200
C           -3.70320320781110        3.63212296197053        2.40592910332417
C           -3.00276519917096        4.58047347809157        1.67509941698408
C           -2.81986301387963        4.43385832773489        0.30884318875150
C           -3.35292211189848        3.31804290527828       -0.31617066085250
C           -3.32494182671186        2.89167962867865       -1.70715652528974
C           -2.75931152407634        3.47381680547249       -2.83002487955861
C           -2.89035611424618        2.82837705534637       -4.04968842073592
C           -3.57201513552357        1.62442251574276       -4.14883569246050
C           -4.14183511483794        1.03515052981428       -3.02753235954347
C           -4.01428867702248        1.67483970838080       -1.81382682749198
C           -6.03678578016582        1.04661012293577       -0.43737944692572
C           -7.02444511852154        1.95610511340671       -0.74463879050088
C           -8.35007881477384        1.55033775286701       -0.65243283426189
C           -8.67372128085982        0.25833444965905       -0.25922762801582
C           -7.68483997586761       -0.65930812302205        0.05154758507670
C           -6.35734512545706       -0.26214897521110       -0.03767919528853
C            0.93536582057246       -2.57090415688942       -0.07279572634575
C            2.18660750165037       -2.02548554036470       -0.17448143367928
N            4.72556895907775       -1.00263257782505       -0.43861629964889
C            5.96278910865226       -0.60438003283058       -0.60318974737249
C            6.87366956451268       -1.42478249590876       -1.40514890541704
C            6.45660636895239       -2.65463532943049       -1.90950851531224
C            7.31757313760196       -3.42428709678147       -2.66802797683541
C            8.60259321630557       -2.97539792029766       -2.93191151533779
C            9.02470464645414       -1.75266380573099       -2.43332017588904
C            8.16661563039794       -0.98079294039073       -1.67337806154653
N            6.41847654021394        0.52003784509233       -0.07891737566407
C            5.43974741118293        3.51267228203320        1.86518861095153
C            6.05227023499773        4.63417459993371        2.38500710573277
H            7.90095916820205        5.67251450442102        2.71074619502721
H            9.26133130417174        3.92318901169626        1.61028762689573
H            8.17103438624362        1.91626436576046        0.68496469883563
H            3.63806204299408        1.50184737420617        1.51719890524736
H            1.69096006083838        0.77972888053956        1.68328206271229
H           -0.51965207407556       -0.20400623197013        1.87157200444851
H            0.31618245399447       -4.63530940075845        1.54712479462642
H           -0.64427148140545       -6.82374223721604        2.16106940961584
H           -3.06668610843713       -7.18955226633401        2.13985658583354
H           -4.61592184571726       -5.36265014338657        1.52856223106081
H           -5.74632111452886       -2.97107928896670        0.78952810621556
H           -1.91260618490491        0.15485732236082       -0.09159203715015
H           -4.78580465125234        1.77308658543155        2.35658855412781
H           -3.83323419010360        3.76677780195304        3.46998108806905
H           -2.59392970986666        5.44494768694568        2.17838712173198
H           -2.27278612152453        5.17476635240974       -0.25522560978061
H           -2.22679848152904        4.41067134246624       -2.75828894355364
H           -2.45547094238180        3.26818657240539       -4.93570717167991
H           -3.66107562101508        1.13880225947420       -5.10969760246480
H           -4.67248840897159        0.09718201409547       -3.10609748248248
H           -6.77419289612629        2.96127253793018       -1.05164260474269
H           -9.13902345448322        2.24881017282759       -0.88988305864895
H           -9.71216268971463       -0.03278115624527       -0.19569861350917
H           -7.94124044813675       -1.66263193915779        0.35691070651843
H            0.69903969952325       -3.49320529170433       -0.58314267198140
H            2.95509878188547       -2.51819287538432       -0.74968676972111
H            5.45339861221129       -2.99044222268125       -1.69504739768391
H            6.98778624040312       -4.37702465142340       -3.05602519370704
H            9.27430420807169       -3.57788381843133       -3.52572452617293
H           10.02536354981668       -1.40129310161419       -2.63887010028798
H            8.47816393394358       -0.02456418743603       -1.28091969392080
H            4.36563328650780        3.42628704876436        1.93066134839404
H            5.45121454711380        5.39835677553158        2.85775253592815
