89
 energy: -139.217851123115 gnorm: 0.000038013076 xtb: 6.7.1 (edcfbbe)
C            7.91144968776768        3.41745734736909       -3.46956727983924
C            6.53226816274162        3.52762469306145       -3.39579908305677
C            5.80897346200347        2.68498748005773       -2.57178538220564
C            6.46139060722782        1.72048871641995       -1.80630692718904
C            5.72159880987963        0.80454982941156       -0.92769608837820
C            4.40801674757578        0.41528259521627       -1.18905661888988
C            3.81043509506199       -0.46573640429658       -0.28800990644757
C            2.43794345094529       -0.95789464328682       -0.45616655106273
C            2.08317165762840       -2.19190943269091        0.08911158688346
C            0.80629744941520       -2.68981011177767       -0.06059317527582
C           -0.15102539922928       -1.95926830354822       -0.76279999683807
N           -1.44400890109255       -2.46828708448381       -0.93175249061176
C           -1.75995486716018       -3.73362357629810       -1.39263379804546
C           -0.92365896337769       -4.75738604298490       -1.81462216537544
C           -1.50925199944279       -5.92732131851605       -2.26079390230078
C           -2.89371571842021       -6.07960739625340       -2.29951487322371
C           -3.73120324788181       -5.05473555663091       -1.90586780427238
C           -3.16565749559220       -3.86953672469037       -1.45291468922501
C           -3.71935279880724       -2.62348945412822       -0.99944190757752
C           -5.02477528171933       -2.17873517024297       -0.82830205261696
C           -5.20194324017285       -0.89716397799177       -0.34208458760654
C           -4.09644337015217       -0.08384299005241       -0.01358220194291
C           -2.79747395872562       -0.50631277978747       -0.17208008443258
C           -2.61940874546614       -1.78538770518354       -0.69078997951194
C           -4.56115835949894        1.25473458759326        0.50874372180124
C           -4.05238849911148        1.57257618086577        1.89484426016369
C           -4.22441567501154        0.85119260705592        3.05629514467358
C           -3.66584641609718        1.34205833646153        4.22937764317562
C           -2.95257729446710        2.53176350133759        4.23312811575943
C           -2.77561240159787        3.25894090179511        3.06651923952440
C           -3.32863802557919        2.77422141034229        1.89218963171343
C           -3.31206032359044        3.29961368756860        0.53538638594973
C           -2.73225318612082        4.44040624594273        0.00399802292147
C           -2.87795969247119        4.68946583273291       -1.35178982055655
C           -3.58922911677691        3.81795524479819       -2.16345582122193
C           -4.17414750390159        2.67320412198081       -1.63731740524714
C           -4.03018807749818        2.42167976344115       -0.29003756580430
C           -6.06344776151439        1.11211232595229        0.44016267762463
C           -7.02641361435105        2.03069990918179        0.79606831854992
C           -8.36256520558359        1.68039699853170        0.64899807624711
C           -8.71847624801288        0.43419293707512        0.15522378975241
C           -7.75195110933810       -0.49230769343132       -0.20302229446404
C           -6.41677278853849       -0.15019528243385       -0.05868748672940
C            0.19172390543294       -0.71847757300008       -1.29666797657690
C            1.47119098799352       -0.22463987602784       -1.14233170111222
N            4.48371231100200       -0.92308864883968        0.76707835553624
C            5.73540205334018       -0.51064275822128        0.93635344793598
C            6.46874215909109       -1.03028833366606        2.09540368967488
C            7.79317979844844       -0.65573488368630        2.31572837749977
C            8.48396766405468       -1.15242772744937        3.40462875842248
C            7.86223657875273       -2.02493800926707        4.28459748033596
C            6.54376337543011       -2.39810690738473        4.07376349135086
C            5.84835871917114       -1.90468018911348        2.98634440448523
N            6.37455733982041        0.33423550193809        0.13379487163606
C            7.85063228707110        1.62726097442168       -1.87537052757168
C            8.56914044930823        2.46708475717654       -2.70456646975051
H            8.47234266779348        4.07434092408946       -4.11796031988869
H            6.01745771868836        4.27503339092040       -3.98186652020282
H            4.73644060748332        2.79475319505783       -2.50623128134022
H            3.89305158688067        0.74604503910752       -2.07493697630125
H            2.83030834177963       -2.75011487913534        0.63148867111517
H            0.53662534797090       -3.63899613706722        0.37718622424367
H            0.14983009480222       -4.64473513591423       -1.80647734030323
H           -0.87872800993338       -6.74027717465829       -2.59019837118555
H           -3.31286935777840       -7.01047846349628       -2.65228469470550
H           -4.80412344054836       -5.16640353484116       -1.95199890617288
H           -5.86357244072978       -2.81528170177884       -1.06374769405982
H           -1.96375300415361        0.12123403852539        0.10409108010659
H           -4.78191368186603       -0.07455171043481        3.05444667688280
H           -3.79010562209042        0.79123184891726        5.15046037656734
H           -2.52885585096536        2.89538382428722        5.15831743897627
H           -2.21851257583683        4.18424965500590        3.07468749855724
H           -2.17784859364674        5.12235372193647        0.63187304734181
H           -2.43218482359924        5.57444744764409       -1.78301865452144
H           -3.69067674228421        4.03256753615358       -3.21753589119232
H           -4.72949133352301        1.99545745126270       -2.26990300711170
H           -6.74898436573344        3.00149848907532        1.18154760916593
H           -9.13272748099925        2.38685995082591        0.92283926403523
H           -9.76414206722021        0.18292483628012        0.04896264148240
H           -8.03551609493720       -1.46112227251595       -0.58700401412381
H           -0.54535657926070       -0.15101255487827       -1.84491634127190
H            1.71147341920328        0.74591292764475       -1.54940621452193
H            8.26160613879338        0.02711933690048        1.62410387266688
H            9.51042293801490       -0.85886221253633        3.56980527535406
H            8.40447994321075       -2.41269736204696        5.13467248946398
H            6.05750083295525       -3.07552212937889        4.76060476442863
H            4.82063387155015       -2.18215705228977        2.81078809480353
H            8.34834810115531        0.88098976650471       -1.27524765957136
H            9.64466198195724        2.38120200847233       -2.75547701536790
