  89
       -139.15914451
 C          6.4549457176        5.6845171345        0.5612529786
 C          7.2545041814        4.8024814017       -0.1476651396
 C          6.9032165116        3.4699619543       -0.2387232665
 C          5.7407759712        3.0022218482        0.3715933124
 C          5.3910368631        1.5812571253        0.2456785338
 C          4.0773541324        1.1187229620        0.3185255640
 C          3.8768479414       -0.2509577412        0.1537619909
 C          2.5411508692       -0.8573243102        0.1918119416
 C          1.5288483210       -0.3473988933        1.0010512920
 C          0.2845937114       -0.9433830119        1.0286771803
 C          0.0192141052       -2.0496046577        0.2239757152
 N         -1.2448918357       -2.6473282757        0.2388485741
 C         -1.4964068056       -4.0028733278        0.3435447265
 C         -0.6117710443       -5.0582763500        0.5125566115
 C         -1.1380950462       -6.3319042893        0.6149228867
 C         -2.5115563724       -6.5583291752        0.5633508447
 C         -3.3982538121       -5.5090571880        0.4281968265
 C         -2.8927712289       -4.2200335025        0.3229772879
 C         -3.5083873345       -2.9280388468        0.2019374374
 C         -4.8347567362       -2.5209291502        0.1282376595
 C         -5.0781479593       -1.1662871380        0.0070545808
 C         -4.0156935077       -0.2406453325       -0.0634920103
 C         -2.6968375899       -0.6233704881       -0.0024777696
 C         -2.4526655724       -1.9842037619        0.1556267880
 C         -4.5476149162        1.1661585358       -0.1882347067
 C         -4.0903515353        2.0671247727        0.9336791554
 C         -4.2597380443        1.8949829362        2.2898031678
 C         -3.7493487561        2.8604850174        3.1473436025
 C         -3.0847369615        3.9716808747        2.6503493193
 C         -2.9119795293        4.1471460172        1.2865359580
 C         -3.4183159471        3.1878176103        0.4250979738
 C         -3.3959914521        3.0914707280       -1.0260771339
 C         -2.8679360220        3.9346342468       -1.9897356093
 C         -3.0003083475        3.5826039283       -3.3234690021
 C         -3.6457579609        2.4112152302       -3.6902608025
 C         -4.1779443332        1.5614146221       -2.7297064260
 C         -4.0494239188        1.9090453888       -1.4030400327
 C         -6.0396148545        0.9363665925       -0.1955058650
 C         -7.0453213133        1.8715991783       -0.2945440296
 C         -8.3619840721        1.4305076953       -0.2763514907
 C         -8.6554141870        0.0801946011       -0.1608817178
 C         -7.6448926736       -0.8627565363       -0.0612119411
 C         -6.3287524962       -0.4305972979       -0.0788566639
 C          1.0278227456       -2.5602599603       -0.5916581609
 C          2.2775110692       -1.9786632620       -0.5925248677
 N          4.8973281350       -1.0737909070       -0.0702466213
 C          6.1178762749       -0.5503598887       -0.1168630848
 C          7.2393086930       -1.4647765627       -0.3501390311
 C          8.5465081107       -0.9824006388       -0.3646203462
 C          9.6018184825       -1.8460747479       -0.5849603018
 C          9.3647882138       -3.1957127595       -0.7932358379
 C          8.0668969105       -3.6816549992       -0.7766902001
 C          7.0074147060       -2.8233261802       -0.5553337379
 N          6.3984586111        0.7392326895        0.0306570648
 C          4.9464424562        3.8938258101        1.0882212686
 C          5.3050982085        5.2256217501        1.1822067164
 H          6.7293334461        6.7265473367        0.6344254558
 H          8.1538077565        5.1568813301       -0.6295306121
 H          7.5151065519        2.7701987051       -0.7865385466
 H          3.2462837917        1.7920890313        0.4457593087
 H          1.7234542556        0.4993670497        1.6424707093
 H         -0.4826361312       -0.5677577461        1.6888613994
 H          0.4528261916       -4.8940371464        0.5769728573
 H         -0.4689425898       -7.1700410638        0.7409218418
 H         -2.8832322858       -7.5689958112        0.6418407415
 H         -4.4636665104       -5.6818060161        0.4092152821
 H         -5.6387237150       -3.2396295335        0.1647375851
 H         -1.8988677505        0.0987863601       -0.0837413550
 H         -4.7781910461        1.0290676368        2.6753013383
 H         -3.8717826791        2.7450857661        4.2143192268
 H         -2.6976281892        4.7105478140        3.3369897937
 H         -2.3943264657        5.0147655405        0.9047831703
 H         -2.3658060987        4.8488453614       -1.7094659752
 H         -2.5964819212        4.2294509111       -4.0887749295
 H         -3.7370196488        2.1578016679       -4.7362360042
 H         -4.6821133372        0.6494658195       -3.0146086333
 H         -6.8143277732        2.9233453853       -0.3828617006
 H         -9.1662388881        2.1473548130       -0.3525897071
 H         -9.6871018566       -0.2402737907       -0.1497446029
 H         -7.8802460807       -1.9129547756        0.0276331344
 H          0.8175549428       -3.4028749721       -1.2327099436
 H          3.0664639323       -2.3715072538       -1.2147265243
 H          8.7134290154        0.0699564474       -0.1963412728
 H         10.6142039490       -1.4690622185       -0.5944022759
 H         10.1916909128       -3.8690998471       -0.9666850984
 H          7.8837953458       -4.7345413327       -0.9362639451
 H          5.9914154316       -3.1855034143       -0.5352502590
 H          4.0581454806        3.5447319560        1.5938961643
 H          4.6856680585        5.9092905851        1.7445119465
