89
 energy: -139.137019404124 gnorm: 0.000075551446 xtb: 6.7.1 (edcfbbe)
C            7.00136336919877        5.29954246511166        1.87433939622024
C            7.85238677033431        4.32050157561892        1.38132569237545
C            7.34893035499501        3.11067115750962        0.95578949166630
C            5.97278835754030        2.83904713716960        1.01099792725280
C            5.49031052147049        1.55208426653090        0.54827174220312
C            4.19480984542660        1.09828406509149        0.72787221346405
C            3.84063619946669       -0.16126427435286        0.21484804005987
C            2.53933146567310       -0.74328534857039        0.32017281224341
C            1.49438978858819       -0.18750362766127        1.09055432680945
C            0.26357857662501       -0.78894683322912        1.15909746186692
C            0.00651060796570       -1.97427077960314        0.45867077133294
N           -1.25021766279916       -2.58477224624908        0.53112401880395
C           -1.47972479909655       -3.92388734931343        0.79002468829492
C           -0.57435772888520       -4.93685094135189        1.07446907932899
C           -1.07805154033516       -6.20201671167727        1.32182292406111
C           -2.44666527749689       -6.45563924349997        1.29839736027726
C           -3.35589860392328       -5.44235412550042        1.04521317746784
C           -2.87376541319074       -4.16690808870311        0.79491194684767
C           -3.50953940159478       -2.90228526131985        0.53254117820920
C           -4.83595981700719       -2.51896366424507        0.42668752874976
C           -5.09438800296359       -1.18193073250571        0.15874362632981
C           -4.04030782565330       -0.25542992320128       -0.02088464721467
C           -2.71942909294943       -0.61795801514122        0.07092405534051
C           -2.45942441082118       -1.95526914509561        0.37583994922847
C           -4.59241711312259        1.12203011939284       -0.29877448545344
C           -4.12637913575167        2.14912514533245        0.70828487158113
C           -4.28442488057301        2.13757049048433        2.07710604073738
C           -3.75925102136994        3.19250881480047        2.81249878140990
C           -3.09119390536215        4.23314095609252        2.18406918022444
C           -2.92999980028758        4.24721188870938        0.80734364976407
C           -3.45166783362654        3.19833698068385        0.06726167740911
C           -3.44181445665915        2.93468185192326       -1.36378426597256
C           -2.91484611140944        3.65714150952632       -2.42206261010326
C           -3.06058647577465        3.15563967589740       -3.70602555151773
C           -3.72053843100900        1.95672483023668       -3.93164388253074
C           -4.25092245577170        1.22681271355084       -2.87556683717695
C           -4.10688353023816        1.72205592413140       -1.59787673101837
C           -6.08063374977087        0.87430017514594       -0.26658518613617
C           -7.10344548402682        1.77578627047736       -0.46211763300999
C           -8.41308517168292        1.31746057234576       -0.38970168662185
C           -8.68661243555515       -0.01804876644028       -0.12461908872202
C           -7.66241214868619       -0.92810479490144        0.07337995471227
C           -6.35059383254257       -0.47873719390124        0.00175243692785
C            1.03068050400975       -2.54125415087941       -0.31220082357824
C            2.26174055579160       -1.94552417127982       -0.37269865900271
N            4.80349798894990       -0.88571908259154       -0.43217366573202
C            6.02653718310110       -0.43151730913331       -0.55629078096415
C            7.02779565820237       -1.26402723401318       -1.22730427233285
C            8.29010025560624       -0.75058696435015       -1.51583339284725
C            9.23699919163462       -1.54056963598615       -2.13966925784206
C            8.93453950909683       -2.84974885931916       -2.48087623823798
C            7.67980642241199       -3.36709959748535       -2.19740194366852
C            6.73023103184673       -2.57995512798853       -1.57466486530481
N            6.39029897173130        0.75279141832125       -0.09772767153356
C            5.12634363227596        3.83968884951779        1.50794397152513
C            5.63791386801495        5.04861912627803        1.93193622221276
H            7.39499805244497        6.24852530219384        2.20713483949419
H            8.91615194961133        4.50590127444694        1.33056656561617
H            8.00639319158314        2.34329101153370        0.57590206400129
H            3.46747871460005        1.69723985332351        1.24848321210185
H            1.66155753144326        0.71310482776880        1.66050740927185
H           -0.50921008703613       -0.36593113690706        1.78463914118820
H            0.48637258352723       -4.74392364861851        1.11598266018288
H           -0.39395163163769       -7.00795431325570        1.54190458670413
H           -2.80207225740603       -7.45639637560625        1.49329180252206
H           -4.41718263545084       -5.63853494748562        1.04676003156250
H           -5.63471605054670       -3.23366672932477        0.54730804434400
H           -1.92479569234343        0.09354497825281       -0.09127285952570
H           -4.80387045303680        1.32708395392765        2.56807413468438
H           -3.87262636494068        3.20243126954339        3.88684481494998
H           -2.69044194417846        5.04292524413952        2.77682105801705
H           -2.40816062283280        5.05941918640268        0.32314567033020
H           -2.40145344270736        4.59198440836016       -2.25207066133583
H           -2.65598741714233        3.70644650462923       -4.54300776007063
H           -3.82336937212713        1.58576147713492       -4.94103650682940
H           -4.76550907846441        0.29343083736266       -3.05309026162868
H           -6.89234922523417        2.81496032261057       -0.66891883315982
H           -9.22867759189993        2.00915222777858       -0.54160341554203
H           -9.71358779283664       -0.34951627783247       -0.07326626219645
H           -7.87978471807388       -1.96545874506819        0.27894233418415
H            0.83024311092364       -3.43590251538881       -0.88335045237954
H            3.04847995825681       -2.37228905642089       -0.97545674654158
H            8.50865999408812        0.27145469759357       -1.24542241163610
H           10.21402785133228       -1.13626334854878       -2.36098597390985
H            9.67641860861746       -3.46651358281984       -2.96665040339842
H            7.44381556863224       -4.38742879117500       -2.46245086034845
H            5.75030394566199       -2.96898372073513       -1.34269039357079
H            4.05948080686411        3.68029077195079        1.55077965894801
H            4.96729460853824        5.80789879003007        2.30953502801939
