90
 energy: -133.937221488184 gnorm: 0.000103610943 xtb: 6.7.1 (edcfbbe)
C            9.25859346794980       -2.27615248703775       -1.55532272968047
C            8.72462079983756       -1.60185552648492       -0.27739103495667
C            9.72684237992289       -1.78060247011791        0.87853432425388
C            8.55213994785140       -0.11895174246768       -0.54837799491570
C            9.65327101122765        0.63984985862296       -0.92169072042705
C            9.55523367830494        1.99042888165303       -1.20255479485740
C            8.32004664950592        2.60842587716348       -1.12533515479375
C            7.20966506454373        1.87861752989928       -0.75547287713848
C            7.31069401450335        0.51830142887924       -0.44779611218039
N            6.17718757248685       -0.18539933173203       -0.06907141194179
C            4.94469936125830        0.50681782146645        0.06334596014198
C            4.71018533617281        1.30606830415059        1.17741891003477
C            3.50377821445886        1.96300692945465        1.31729375938297
C            2.50582472767158        1.81876392324969        0.35505360171723
C            1.21339832408021        2.49195692041057        0.52708022324853
C            1.13475361472265        3.83796267268937        0.88458900528453
N           -0.00132571663765        4.48550038912172        1.06195638054711
C           -1.13764009825486        3.83779595462782        0.88680561316258
C           -1.21602598820013        2.49259595831429        0.52686326522785
C           -2.50789552098866        1.81950917422044        0.35055467386072
C           -2.75775164051380        1.04824859149975       -0.78274953027011
C           -3.96903381063739        0.40416862693928       -0.93781316867617
C           -4.94631907049229        0.50718816964790        0.04691633718875
N           -6.17637390149055       -0.18461714129869       -0.09253859401197
C           -7.33144529831253        0.53521210368428       -0.36478803913978
C           -7.25421233169163        1.91533135381326       -0.57694889491855
C           -8.38557664484989        2.66038707802637       -0.83607848020952
C           -9.61993231905162        2.03891406541280       -0.89672464696117
C           -9.69507112024095        0.66984390834949       -0.71793955342101
C           -8.57192824076543       -0.10471315892975       -0.45945592614002
C           -8.72060734126747       -1.60764916092037       -0.31543010538182
C           -9.30771786159251       -2.16637348024435       -1.62551939729087
C           -9.66753845103801       -1.90519430301767        0.86250225106068
C           -7.38926129327994       -2.28384500137213       -0.04544973514720
C           -7.34636450075092       -3.66256636125361        0.11583934387603
C           -6.17144355697256       -4.33493981381244        0.39706438995059
C           -4.99983561322204       -3.61374703202768        0.54028876968909
C           -5.01331962316552       -2.24345511089660        0.38352351429402
C           -6.19502240223281       -1.56411514310986        0.07082350151906
C           -4.70661662078510        1.28639367055411        1.17452803663422
C           -3.50186964786563        1.94495829284846        1.31940423266950
C           -0.00145587739961        1.80770153579741        0.35632094401755
C           -0.00456060168443        0.41046079352612        0.12963310035260
N           -0.00953125492008       -0.73038907799785        0.00455334322740
C            2.75227051077185        1.02897310570617       -0.76616659734542
C            3.96354782943977        0.38275487989581       -0.91440026790539
C            6.21632028529136       -1.54555378015522        0.20587696554656
C            5.05075581736140       -2.20642199480921        0.60593520906917
C            5.05832778733693       -3.55814285062810        0.88036687513835
C            6.23518682892459       -4.27667154003203        0.76993394202753
C            7.39318650339531       -3.62110859090547        0.39383960661185
C            7.41426602943991       -2.26197051822437        0.11017030458797
H            9.41420118008827       -3.33953506507981       -1.39623963967833
H            8.54293040427650       -2.15146204567982       -2.36641231316624
H           10.20353212722721       -1.83576255181981       -1.86127370701855
H            9.88756597516061       -2.83339405734033        1.09325633136817
H            9.34418953456239       -1.30112092582318        1.77816217454662
H           10.68588169124974       -1.33314028515652        0.63267326554749
H           10.62099064414541        0.16763602965298       -0.99854603550275
H           10.43337558709456        2.55083390348478       -1.48655792328084
H            8.21684431505514        3.65891917584131       -1.35502780853579
H            6.24767923232672        2.36562988135808       -0.70734426544378
H            5.47751078607047        1.40381095928194        1.93094853897909
H            3.31868573527390        2.56754732366875        2.19265527809852
H            2.03573570506206        4.41991033644595        1.02478878803195
H           -2.03881761957985        4.41861614012996        1.03042287686900
H           -2.00789238411951        0.96745620656939       -1.55595676875765
H           -4.16173283750744       -0.19184361349665       -1.81731939401239
H           -6.29410036435355        2.40702066349559       -0.54469370655928
H           -8.29929528309265        3.72571084761102       -0.99299139403780
H          -10.51456808225880        2.61071721504170       -1.09276509857007
H          -10.66212118823092        0.19491811680813       -0.78568232452089
H           -9.42981811203190       -3.24435743939138       -1.56756037384282
H           -8.64124568796561       -1.93992064645200       -2.45632089639721
H          -10.27820567025630       -1.72516191294817       -1.83468432136843
H           -9.24053868722590       -1.52162921650578        1.78776305787236
H           -9.82235360033209       -2.97467964961535        0.97459733332195
H          -10.63523705044117       -1.43528534267547        0.71040054323919
H           -8.25679144707763       -4.23521556291197        0.02380289911653
H           -6.17439882504421       -5.40843878105497        0.51275008717891
H           -4.07145905609082       -4.11272751116183        0.77680435307256
H           -4.09368957480722       -1.69292854335898        0.50949116016581
H           -5.46955516098335        1.36817576850826        1.93441655360239
H           -3.31415033734370        2.53492949806768        2.20412371263552
H            1.99953960690830        0.93384982481366       -1.53487452503945
H            4.15324701321360       -0.22971113860512       -1.78312744492331
H            4.12801254293852       -1.65522639175000        0.70444978969417
H            4.14257909003826       -4.04477408676131        1.18273022828841
H            6.25480206460625       -5.33557079518009        0.98011917487336
H            8.30671775619968       -4.19177272090473        0.32231460414322
