  90
       -133.88349837
 C          9.2312521785       -2.2878564122       -1.5449556008
 C          8.7002414857       -1.6179795546       -0.2644188254
 C          9.6943292935       -1.8190040590        0.8939058196
 C          8.5482530205       -0.1318745811       -0.5252086619
 C          9.6615486007        0.6146327914       -0.8861705686
 C          9.5817996644        1.9667665885       -1.1628196930
 C          8.3530161098        2.5979292494       -1.0966913098
 C          7.2309766622        1.8801123425       -0.7402133802
 C          7.3135050720        0.5186688918       -0.4323359031
 N          6.1690157045       -0.1742000372       -0.0687116587
 C          4.9436438728        0.5259862104        0.0488929006
 C          4.7258077301        1.3798842087        1.1255995105
 C          3.5208657556        2.0406772470        1.2539573047
 C          2.5063970932        1.8483137726        0.3178886003
 C          1.2141781488        2.5210712949        0.4825505566
 C          1.1313133212        3.8735993833        0.8128804013
 N         -0.0061775882        4.5183019829        0.9849368791
 C         -1.1400415993        3.8628142658        0.8304939928
 C         -1.2140138629        2.5107377923        0.4972512564
 C         -2.5018680609        1.8278599686        0.3392784412
 C         -2.7437703145        1.0166639709       -0.7674528187
 C         -3.9527562072        0.3665558986       -0.9076474784
 C         -4.9381807594        0.5024771558        0.0653635805
 N         -6.1660969747       -0.1881380502       -0.0633857349
 C         -7.3248212715        0.5309986659       -0.3205130790
 C         -7.2572941429        1.9153638807       -0.5064505837
 C         -8.3937194296        2.6581965511       -0.7474973986
 C         -9.6239982344        2.0307967210       -0.8205024424
 C         -9.6895813527        0.6579786088       -0.6734655494
 C         -8.5612685704       -0.1137745236       -0.4305756288
 C         -8.7004460872       -1.6198006080       -0.3238580473
 C         -9.2637655809       -2.1520265745       -1.6543317052
 C         -9.6609624224       -1.9510246759        0.8325972698
 C         -7.3689507644       -2.2931094905       -0.0537898065
 C         -7.3222254334       -3.6736652637        0.0869670518
 C         -6.1464979646       -4.3447292150        0.3652478046
 C         -4.9795622895       -3.6206403835        0.5283661619
 C         -4.9973690746       -2.2486157655        0.3921294898
 C         -6.1791961083       -1.5701237853        0.0788351244
 C         -4.7041598292        1.3188521720        1.1681656127
 C         -3.5015944232        1.9834835652        1.2974993273
 C          0.0020073850        1.8279862324        0.3326216562
 C          0.0021822155        0.4264161714        0.1303232342
 N         -0.0006751890       -0.7147967498        0.0163988087
 C          2.7368216226        1.0067912103       -0.7686050871
 C          3.9457200593        0.3553150072       -0.9050492065
 C          6.1914495396       -1.5352640307        0.2046348547
 C          5.0190418067       -2.1828040332        0.6058241424
 C          5.0117860160       -3.5344346725        0.8790073509
 C          6.1795797835       -4.2666017236        0.7661513684
 C          7.3450282543       -3.6239045269        0.3929189535
 C          7.3811116799       -2.2645978712        0.1123630055
 H          9.3638841763       -3.3559149893       -1.3971181814
 H          8.5251149747       -2.1392014329       -2.3598592972
 H         10.1872781079       -1.8632278309       -1.8381264474
 H          9.8442369022       -2.8753121129        1.0984602048
 H          9.3111524433       -1.3459012378        1.7962193557
 H         10.6588481315       -1.3779123952        0.6584930924
 H         10.6237207363        0.1304949333       -0.9572324792
 H         10.4684038562        2.5174789994       -1.4367344797
 H          8.2633532614        3.6492049437       -1.3258576947
 H          6.2737185296        2.3774710208       -0.7054385797
 H          5.5050084084        1.5140084327        1.8611893737
 H          3.3479101662        2.6836785524        2.1044636144
 H          2.0303103252        4.4630251764        0.9341241298
 H         -2.0431856847        4.4422952777        0.9679715677
 H         -1.9888066327        0.9105430000       -1.5322651511
 H         -4.1392625629       -0.2594330943       -1.7672437803
 H         -6.3007023681        2.4133292969       -0.4695148532
 H         -8.3138263009        3.7265137532       -0.8817554294
 H        -10.5220102363        2.6006514364       -1.0029480336
 H        -10.6525803961        0.1770927363       -0.7548246794
 H         -9.3839780871       -3.2312306074       -1.6204108124
 H         -8.5831557040       -1.9078849349       -2.4678818566
 H        -10.2310126838       -1.7078318279       -1.8720295914
 H         -9.2525965118       -1.5796913407        1.7706609369
 H         -9.8047135599       -3.0238928891        0.9227381417
 H        -10.6320951286       -1.4904697121        0.6750982446
 H         -8.2298208343       -4.2479983252       -0.0206521265
 H         -6.1454284495       -5.4192596355        0.4641365168
 H         -4.0517056327       -4.1189573707        0.7656078120
 H         -4.0821999436       -1.6961941984        0.5357614863
 H         -5.4710733444        1.4243557135        1.9211316305
 H         -3.3186028445        2.6016524623        2.1641669511
 H          1.9723068535        0.8755633320       -1.5197882238
 H          4.1220484674       -0.2985984038       -1.7457518901
 H          4.1037578390       -1.6213988260        0.7092450160
 H          4.0916211209       -4.0103296611        1.1826616037
 H          6.1868374503       -5.3253989236        0.9745015730
 H          8.2526506202       -4.2038524055        0.3216615031
