90
 energy: -133.864720574091 gnorm: 0.000054897055 xtb: 6.7.1 (edcfbbe)
C            9.21912255131459       -2.09883882046072       -1.98364547731870
C            8.83696148161465       -1.39656545699558       -0.66551049310625
C           10.01962756197620       -1.44442299585074        0.32209915057315
C            8.51061430735772        0.05069680811641       -0.96686722070005
C            9.47495870360356        0.86770420159047       -1.54187681103081
C            9.22146189667933        2.18959545825266       -1.85924885614546
C            7.96490542604323        2.72169588193988       -1.61250230872346
C            6.98897997652742        1.93653535839868       -1.04125387451658
C            7.24856312097408        0.60218952882480       -0.69545060291194
N            6.25336719227857       -0.15511620421335       -0.11113090422781
C            4.99658558905938        0.45356996824487        0.16850175820845
C            4.85781077425164        1.30348393355385        1.26372504673673
C            3.63771023434011        1.87868243272782        1.54068988135775
C            2.51763501392460        1.62301408887534        0.73649440113743
C            1.22782518555113        2.22199107442640        1.03767172198287
C            1.14089288237739        3.52271007974107        1.48567023319729
N           -0.00548920310609        4.16459534433640        1.70918260019176
C           -1.15194689933009        3.52165200030809        1.48821252371359
C           -1.23797675743021        2.22101464746134        1.04021275346581
C           -2.52723447247961        1.61969633370950        0.74103849636959
C           -2.68986904479574        0.77595906552983       -0.36608435914238
C           -3.90576720022417        0.19278516239321       -0.64336504781039
C           -5.00199462717730        0.43798895508537        0.18106245300595
N           -6.25482150319634       -0.18088232003555       -0.09264489371722
C           -7.26408577288900        0.57100003388643       -0.65980597013758
C           -7.02366417810286        1.91223453390811       -0.99257793792588
C           -8.01378092453831        2.69187209879981       -1.54674245146745
C           -9.26574686132690        2.14727054083050       -1.78949226996369
C           -9.50038064599710        0.81878332631563       -1.48546151667432
C           -8.52155007233510        0.00727948447070       -0.92736732767635
C           -8.82808689763339       -1.44707553780562       -0.63963287855627
C           -9.21737158083828       -2.13840581038271       -1.96140009262724
C           -9.99876836084151       -1.51968511759189        0.36075722805748
C           -7.63789865880073       -2.16893297899989       -0.04365305238110
C           -7.74322233572828       -3.51544626060453        0.27850638624727
C           -6.69524291333564       -4.21768662377585        0.84486300284618
C           -5.50291087839377       -3.56352348096058        1.11582679618594
C           -5.36835997906313       -2.22839030021242        0.80795605645717
C           -6.42104914651329       -1.51733079114902        0.21308130190527
C           -4.86308240946661        1.28590497979105        1.27785969231001
C           -3.64503323366287        1.86747457552049        1.55071231710451
C           -0.00501486348376        1.49861718679250        0.85520803010284
C           -0.00568444073445        0.13355191603794        0.67140322866295
N           -0.00723009215914       -1.02368408871280        0.53896565574543
C            2.67958144546448        0.77515020346268       -0.36764384170070
C            3.89756252770487        0.19803082894225       -0.64886130681705
C            6.43854959233979       -1.48534053844449        0.20957982089066
C            5.39894635344482       -2.20201343587583        0.82042461505639
C            5.55260284025326       -3.53133947338246        1.14412059425356
C            6.75121043940022       -4.17378554580898        0.87275452671223
C            7.78600763829174       -3.46590002171225        0.28937911948783
C            7.66141529749096       -2.12499059482044       -0.04878486556729
H            9.48384471759788       -3.13649308771545       -1.80417997297271
H            8.37983432827135       -2.07220070513241       -2.67617695845385
H           10.06638375202147       -1.60645637563303       -2.45142853515116
H           10.28679127475789       -2.47113303425071        0.55353623217022
H            9.75083149767807       -0.94131889849299        1.24910653983891
H           10.89146105658306       -0.95113000316976       -0.09714070187404
H           10.45358758574956        0.46578181705251       -1.75277251047188
H            9.99480248053167        2.79758071422094       -2.30318886130311
H            7.74404679719111        3.74689629233028       -1.86867066955068
H            6.00874675537055        2.34849256229459       -0.86044182028436
H            5.71019764090551        1.49515189735040        1.89934929516309
H            3.53198143812756        2.51331110429335        2.40804084445214
H            2.03243017234174        4.12085245602911        1.62524814933493
H           -2.04385033931584        4.11882257599932        1.62951768684443
H           -1.85057541737977        0.58937454575851       -1.01928334922855
H           -4.01717195646144       -0.45509795068482       -1.50069701578343
H           -6.04697400795402        2.33407332618190       -0.81551231774648
H           -7.80751423751390        3.72255795219183       -1.79284132370112
H          -10.05001493337291        2.75071790020168       -2.22026857599174
H          -10.47565043471673        0.40720476252591       -1.69321918279844
H          -10.07938059337089       -1.65441088453878       -2.41058791178980
H           -9.46249175406943       -3.18253240024973       -1.79200191229257
H           -8.38851619056324       -2.08893436361744       -2.66515472234719
H           -9.72347821788595       -1.02766852457336        1.29181345258439
H          -10.25421520195599       -2.55199366982462        0.58027695311691
H          -10.87956520407173       -1.02791735744977       -0.04120767073856
H           -8.66800172087751       -4.03644140229071        0.08595567829273
H           -6.80932535126420       -5.26472785805125        1.08033088020142
H           -4.67747257742683       -4.09121273450973        1.56918004105499
H           -4.44091624313985       -1.72322956571667        1.02764301943244
H           -5.71337184120179        1.47037008126464        1.91840173199009
H           -3.53863078551382        2.50023292425726        2.41936203436793
H            1.83819895637721        0.58089744547623       -1.01587592081185
H            4.00840522826198       -0.45249573588856       -1.50427034664482
H            4.46671439774933       -1.70552473295697        1.03970024390405
H            4.73706575015733       -4.06378055026136        1.60971690403387
H            6.88025535359983       -5.21620360069213        1.12066669616958
H            8.71558506806761       -3.97788773333976        0.09576495928940
