90
 energy: -133.936950277258 gnorm: 0.000050184733 xtb: 6.7.1 (edcfbbe)
C            9.43939219612502       -2.16137771084807       -1.00318667804651
C            8.83787954357226       -1.34036809797531        0.15317411156428
C            9.79986771864600       -1.33084256100849        1.35615866291992
C            8.63393456932429        0.08565356902300       -0.32334523259529
C            9.72684651034345        0.82131192222227       -0.76226299545349
C            9.60179555581422        2.11453249216481       -1.23575686859001
C            8.34692853238032        2.69383618634300       -1.29210113690753
C            7.24439775316102        1.98621604245614       -0.86078264858813
C            7.37170033131625        0.68836062774470       -0.35576804950350
N            6.24488739477933        0.00740817306079        0.08263328177539
C            4.98896898933514        0.66807416304541        0.06669844884372
C            4.70332448451462        1.64766723067754        1.01240625255579
C            3.48051029084711        2.28898408575192        0.99855348136698
C            2.51510742205143        1.94775467758042        0.05317773489935
C            1.21549427486189        2.63145066753138        0.04977276995055
C            1.13842014585534        4.02387697096808        0.07384525594764
N            0.00445974041731        4.69764649339400        0.03675043564142
C           -1.13112276982739        4.02740995050829       -0.01318003026254
C           -1.21138190896653        2.63498326260442       -0.01564588881717
C           -2.51241204378665        1.95419998025096       -0.03104777894144
C           -3.47662320056133        2.31202669957538       -0.97143921336785
C           -4.70065082116020        1.67332147462073       -0.99581835652145
C           -4.98879549130598        0.67976951488279       -0.06548481265174
N           -6.24605557213308        0.02234702055462       -0.09084400835229
C           -7.37278356254182        0.70125418757717        0.35138374131053
C           -7.24594921922757        1.99717252258826        0.86147741877938
C           -8.34861441922309        2.70285069858810        1.29562290688795
C           -9.60328930974858        2.12332162457883        1.23766368369878
C           -9.72779670687250        0.83153861101654        0.76017846926649
C           -8.63475865866433        0.09798004735291        0.31803257260930
C           -8.83834700839944       -1.32718738748044       -0.16115742719603
C           -9.80577337020349       -1.31674363294567       -1.35974950266705
C           -9.43298777452301       -2.15189374688858        0.99614854276864
C           -7.53425909061518       -1.96774370108262       -0.59891165715083
C           -7.54167635236542       -3.27358853259384       -1.07125447522147
C           -6.39208165123788       -3.90420740136356       -1.51025731517278
C           -5.19501820991382       -3.21130153459195       -1.49541754141595
C           -5.15871491109592       -1.91325594284751       -1.03038284668243
C           -6.31520655710152       -1.28211833381230       -0.56163333991804
C           -4.03770906598126        0.33484834038787        0.88909941331453
C           -2.80761394391747        0.96237016710923        0.90157007065182
C            0.00120304713981        1.92643296664890        0.01042636088541
C           -0.00075717168733        0.51086328010438       -0.00266183261356
N           -0.00220849657098       -0.63671497723238       -0.01319577034434
C            2.80817164757610        0.97029439646827       -0.89517742317782
C            4.03705881047315        0.34014877435310       -0.89293776762129
C            6.31324812114790       -1.29984804050617        0.54545003683596
C            5.15528389616182       -1.93548925064217        1.00435301939516
C            5.19133906357434       -3.23593449638512        1.46267167421354
C            6.38953244139293       -3.92679188885938        1.48048986542215
C            7.54017369300088       -3.29238445118876        1.04973009458824
C            7.53295431956884       -1.98434419961269        0.58354197093176
H           10.38886969884009       -1.74203975391726       -1.32418971206351
H            9.60714938396902       -3.19144475348044       -0.70128080826429
H            8.75822391369628       -2.15909893252207       -1.85269695836060
H            9.99164178741078       -2.34101105184488        1.70704471236598
H            9.36443554000064       -0.76014209991297        2.17485354948645
H           10.75025807654681       -0.87719922683552        1.08903145181799
H           10.70973222191295        0.37548923691476       -0.73830865227722
H           10.47420738654007        2.65872515777681       -1.56529536050373
H            8.22173890933156        3.69618612785856       -1.67491733708150
H            6.26806862982133        2.44205693307718       -0.92037062191284
H            5.44622710566910        1.90205344474599        1.75370193753499
H            3.25900171469232        3.04120607567269        1.74104370832641
H            2.04083027139147        4.61976449849655        0.10265363112907
H           -2.03211405114150        4.62586771228122       -0.03058926325886
H           -3.25328445592771        3.07543877224670       -1.70188561331704
H           -5.44266877196456        1.94071539894921       -1.73340495176966
H           -6.26988766679652        2.45324028879269        0.92304140316196
H           -8.22358514479471        3.70385463313329        1.68199612568557
H          -10.47580094445867        2.66598320246177        1.56943750005123
H          -10.71034468991191        0.38500640427149        0.73586442264467
H          -10.75660919591061       -0.86757955239902       -1.08680987202095
H           -9.99561643616386       -2.32627893707148       -1.71343319775559
H           -9.37602788289979       -0.74157434198825       -2.17832477627000
H           -8.74755935481594       -2.15076255621483        1.84222443887368
H           -9.60073337858526       -3.18144871381289        0.69245898728846
H          -10.38138690950436       -1.73456391340181        1.32295083307311
H           -8.47177864791565       -3.82063096324919       -1.10202493336339
H           -6.43404749448916       -4.92209725613127       -1.86796365501102
H           -4.28563837041348       -3.67614907003068       -1.84724458677804
H           -4.22032071624445       -1.38016416426127       -1.03346880504105
H           -4.26644852988025       -0.43107916553102        1.61500491751267
H           -2.07982092944379        0.69524227302342        1.65347971420440
H            2.07965896835617        0.71599927624730       -1.65082031010762
H            4.26419685453411       -0.41451255561105       -1.63104373494518
H            4.21591118908744       -1.40411132685278        1.00492764334951
H            4.28081844356295       -3.70426578259339        1.80687251905596
H            6.43143596162154       -4.94630191533150        1.83356748011618
H            8.47097130849912       -3.83814233684236        1.08231049522478
