90
 energy: -133.864586583241 gnorm: 0.000056204285 xtb: 6.7.1 (edcfbbe)
C            9.15961756892239       -2.21006985368622       -1.86411617243476
C            8.76202516901730       -1.52007359042632       -0.54418470355476
C            9.90513484208705       -1.64174987941770        0.48290615410420
C            8.51056424140704       -0.05342677844331       -0.82302241680232
C            9.52896690808002        0.73067626492663       -1.34842650304191
C            9.34547132289051        2.06904826693181       -1.64412587666080
C            8.10638247509929        2.65222450633356       -1.42621308626597
C            7.07783661973471        1.90032058132255       -0.90458113096696
C            7.26590578596386        0.54865373249851       -0.58060413056874
N            6.21874605034775       -0.17533832134233       -0.04703947957568
C            4.97839613046497        0.47858917471481        0.19961546618922
C            4.83693495098018        1.32542899231298        1.29694602484434
C            3.62577101308656        1.92967850181866        1.55046371011469
C            2.51744086966277        1.70497141470963        0.72139191130236
C            1.22945528812115        2.31242352635825        1.01307070080608
C            1.14290003930426        3.60647238510085        1.47957086994871
N           -0.00328870608080        4.24789368618895        1.70677316555258
C           -1.15032879327162        3.60796400289668        1.47788569380628
C           -1.23587081662187        2.31387838673260        1.01199004919199
C           -2.52311657797130        1.70752055844064        0.71496134077462
C           -2.69252128986955        0.89051331611741       -0.41100338618882
C           -3.89996176563053        0.28426488333155       -0.67380242340295
C           -4.98072380105438        0.47777569406937        0.18508241498078
N           -6.21730703199944       -0.17862145926973       -0.06546929220144
C           -7.29316642294117        0.56130831620095       -0.51542855249697
C           -7.13572251191575        1.93297740375531       -0.76309748216371
C           -8.19449813385857        2.70057627350074       -1.19347294055127
C           -9.43426800795226        2.11384081528709       -1.39706490792894
C           -9.58677498282512        0.75610818357734       -1.18420093473107
C           -8.53741070434830       -0.04397411741739       -0.75195638757721
C           -8.75534726789363       -1.53124192617711       -0.57323009882955
C           -9.18186630712182       -2.12817254305056       -1.92904732406809
C           -9.86242861475578       -1.75194837960984        0.47653746390867
C           -7.50015137058192       -2.23413610178890       -0.10138330467368
C           -7.52371951135737       -3.60534436159360        0.11640001129126
C           -6.41698826538816       -4.29346906384780        0.57848399092796
C           -5.24889167014668       -3.59902726587306        0.85408054448584
C           -5.19480684641750       -2.23897614745604        0.64705135762943
C           -6.30508961184666       -1.54117731706236        0.14877311384842
C           -4.83713241882600        1.30709910664440        1.29601389386258
C           -3.62812566575538        1.91371122256741        1.55314520378635
C           -0.00370354486062        1.59437910368276        0.81349179710830
C           -0.00850945673039        0.23274830992586        0.60600777757627
N           -0.01658853579664       -0.92165967148784        0.45078754192345
C            2.68508246489887        0.86852678741960       -0.39054775885449
C            3.89436034787823        0.26362109284501       -0.64911732756651
C            6.33427925777256       -1.51932906672688        0.25011303788700
C            5.24557766975266       -2.20094011765043        0.81385075858975
C            5.32877956617429       -3.54284775203573        1.11024922328647
C            6.50454918907258       -4.23372308885800        0.85912578061605
C            7.58806946567512       -3.56079392601221        0.32502154483141
C            7.53479273002126       -2.20824831566452        0.01538749485236
H            9.36583779086262       -3.26354635846840       -1.70087921493633
H            8.34959314620147       -2.12533911550610       -2.58623380983990
H           10.04760476541001       -1.75043229255298       -2.28753363381829
H           10.12052359991385       -2.68411436836464        0.69773566879471
H            9.62394394769760       -1.14978899897734        1.41223424399636
H           10.81132615216192       -1.17602289463930        0.10725857168888
H           10.49510896124192        0.28916428372062       -1.53644946119994
H           10.15919610803763        2.65065200985685       -2.04953090369582
H            7.94027169548098        3.69152657340614       -1.66640201248182
H            6.11134715014836        2.35236351574626       -0.74689077533328
H            5.67849623754086        1.48888347956543        1.95452819391309
H            3.51552569433093        2.55986239151065        2.42053741910936
H            2.03525153092430        4.19971685468711        1.63438978314631
H           -2.04265094147887        4.20233892919237        1.62820128945279
H           -1.86467379488624        0.74168684191937       -1.08824927067707
H           -4.01666771651249       -0.34452640538373       -1.54457613054945
H           -6.16923195180579        2.38956337022819       -0.62003072863410
H           -8.05115337493934        3.75516083586312       -1.37437810185264
H          -10.27183440482665        2.70766078593886       -1.72963314287280
H          -10.55296899717760        0.31157333201172       -1.36459076836812
H           -9.35579048023497       -3.19646936791999       -1.84196140677908
H           -8.40001463565126       -1.96567650051739       -2.66873009555513
H          -10.09519468512160       -1.66153357672353       -2.28571790879095
H           -9.54955975378644       -1.34641032577347        1.43697442881972
H          -10.06875200750406       -2.81061034107702        0.60184600242589
H          -10.78193817287567       -1.25805119750446        0.17710147159303
H           -8.43007642636622       -4.15761508877028       -0.07644055533946
H           -6.46770114272464       -5.36040564111192        0.73283628969219
H           -4.37910616359527       -4.11395188813634        1.23300124182631
H           -4.28522128233417       -1.70512570279717        0.87307085045334
H           -5.67538726411203        1.45378808110603        1.96176451656831
H           -3.51558421911643        2.52999953330967        2.43284416457098
H            1.85463669043547        0.70296734357288       -1.06058422736416
H            4.00946369702267       -0.38078948253753       -1.50857825548441
H            4.33023485679594       -1.66810238732277        1.01825967963063
H            4.47578661911289       -4.04675648086017        1.53894034613947
H            6.57836074920952       -5.28645540980986        1.08516418179316
H            8.49932154667075       -4.11037032855378        0.14798703720723
