94
 energy: -139.278796135654 gnorm: 0.000044332913 xtb: 6.7.1 (edcfbbe)
C            8.14161197495274       -1.59863798913106       -0.28227776476232
C            8.89543147236603       -0.57479074538012        0.58638687613358
C            8.12896695595630       -0.31882749013246        1.89702142259505
C           10.24107911119028       -1.18988282163194        0.95511631319890
C           10.30063220213997       -2.38757519081073        1.65568009426360
C           11.50541677253844       -2.97340533552224        2.00456107932230
C           12.69685139750522       -2.36123417759187        1.65392225986427
C           12.66838416556532       -1.17065789547168        0.95867144830443
C           11.45086427938659       -0.58616066801115        0.60854930118861
N           11.44622798083473        0.59713422923770       -0.08593933491586
C           10.30591967366254        1.25537701489787       -0.47954397700018
C           10.46830892278665        2.45124588743061       -1.17919450377373
C            9.36994951172649        3.16472895069425       -1.60374755553633
C            8.10946018291547        2.67760408812475       -1.32397616370253
C            7.93255598822741        1.48262447260423       -0.62481205853595
C            6.49873513620301        1.14698126863513       -0.42991051781348
C            5.79280896778876        1.67736358448181        0.64646886304739
C            4.43609993628845        1.45569172768632        0.78432451448642
C            3.74005120066948        0.71056919417311       -0.16658160566129
C            2.30016524533650        0.45070321242289       -0.05358927699080
C            1.64995036126899        0.42959991087189        1.20770303565136
C            0.30903528998948        0.18444029610430        1.27462686385591
C           -0.40576256530214       -0.04753636159330        0.07764320323374
N           -1.72633807980923       -0.28438215054241        0.11771224914070
C           -2.37510860914528       -0.50330107000084       -1.00670402822402
C           -3.81679282551784       -0.75266364785519       -0.89227745921914
C           -4.32763772261128       -1.27497742722738        0.29653112805439
C           -5.67818371673863       -1.52016092658991        0.43815261551158
C           -6.56609043821522       -1.22563313359998       -0.59397967303848
C           -8.00079169170654       -1.59530058032921       -0.48527622826077
C           -8.24462955423309       -2.90817310187534       -0.89161223609390
C           -9.51754775851916       -3.44072006691123       -0.87045057849113
C          -10.56111732593558       -2.65316351427400       -0.43876857319917
C          -10.33135378312230       -1.34003844049692       -0.02766980539548
C           -9.04399950749077       -0.77733316890009       -0.03914182850364
C           -8.83154932800198        0.66488453981916        0.42581059764763
C           -7.87926823710943        0.67358304464067        1.63574487170181
C           -8.23632647858957        1.49243126503033       -0.72830124125327
C          -10.12548802861266        1.34550083009975        0.85860963191639
C          -10.11425075582288        2.65934595588339        1.30861541515207
C          -11.27061102937822        3.30678137978697        1.70863570680073
C          -12.48367782077928        2.64063267075992        1.66612824040801
C          -12.52503300716197        1.33475340832360        1.22497077379987
C          -11.35591494323026        0.68754624289572        0.82401779935661
N          -11.41958351572189       -0.61301995117737        0.39136975435246
C           -6.05394244669246       -0.72818141805954       -1.78904588931386
C           -4.70156339848517       -0.48609399784361       -1.93602817083424
C           -1.71808261449209       -0.52047240603109       -2.26441220171641
C           -0.37545942659990       -0.28435114655396       -2.33045581803569
C            0.33434281056006       -0.02470744670816       -1.13610981130298
N            1.65344718158306        0.21999239051798       -1.17691393592833
C            4.43851025695245        0.22460383064336       -1.27258232733133
C            5.79441285448869        0.44457820713416       -1.40501925786921
C            9.03274470657730        0.73995338197664       -0.18416144153626
H            7.11087016467768       -1.29651258012107       -0.43238218284659
H            8.62754482615958       -1.69205903229131       -1.25223285676471
H            8.14101110112195       -2.57603730222355        0.19196230146234
H            8.60948373116955        0.48125148528547        2.45806128060182
H            8.12208214725838       -1.21110988411762        2.51673584172488
H            7.10048805137063       -0.03951552709753        1.69578379731647
H            9.38805801303641       -2.88813336662869        1.94395730412113
H           11.51187328923877       -3.90591713260006        2.54917784457395
H           13.64271512027762       -2.80893906081426        1.92171368392910
H           13.58809499465298       -0.67731489896208        0.67575548314851
H           12.33419938152754        1.01116513031622       -0.32633789957276
H           11.46864900701128        2.80748869618563       -1.38203774806326
H            9.49321099335006        4.09040581303336       -2.14582577111464
H            7.23372123720075        3.22186116359756       -1.64686537287049
H            6.31585884441604        2.27557848950270        1.37906469714038
H            3.91463628942884        1.89540790866364        1.62136580365425
H            2.22315700632217        0.58466326448736        2.10831563554048
H           -0.22418692418921        0.15565385151082        2.21343939826907
H           -3.64119844144305       -1.49359452359978        1.09996026370286
H           -6.05484653493275       -1.94869612809569        1.35600734361219
H           -7.41148359894030       -3.50871195092308       -1.22727602291524
H           -9.69256706944107       -4.45813030540802       -1.18711777067476
H          -11.56983019783655       -3.04122140258411       -0.41177425863523
H           -6.88783741768639        0.33761532794028        1.35213388312677
H           -8.26441311433322        0.01936950553276        2.41641246626767
H           -7.79136779605819        1.67579974406832        2.04576549560295
H           -7.22094599818447        1.17972899618226       -0.94569972379815
H           -8.84398331441817        1.37250714273138       -1.62390918519767
H           -8.21610356999690        2.54790396460351       -0.47192127500652
H           -9.18310670260945        3.20454877298314        1.35389274160596
H          -11.22238839960128        4.32945717316952        2.05225620951923
H          -13.39236208476745        3.13603031194932        1.97537867525205
H          -13.46262343190391        0.79753497993017        1.18568839528183
H          -12.32063516800058       -1.06646369974639        0.37764620825589
H           -6.72632464344743       -0.53051861493337       -2.61165973749445
H           -4.34078859003330       -0.06827775261685       -2.86403440199161
H           -2.27867285459313       -0.74506615411060       -3.15829908505713
H            0.16485932168736       -0.29468875623510       -3.26560918516969
H            3.89366009357986       -0.32631941706888       -2.02362043194856
H            6.31829182143428        0.07400898470918       -2.27452597718305
