94
 energy: -139.216549246540 gnorm: 0.000102102882 xtb: 6.7.1 (edcfbbe)
C            8.12584861443465       -1.50824583530915       -0.38708944442052
C            8.89610889368403       -0.55600493949899        0.54638680252196
C            8.14147539591316       -0.38927338601958        1.87867669742183
C           10.23711246816611       -1.20641636154820        0.86102401995572
C           10.29244411162041       -2.45193063497620        1.47297659814074
C           11.49603013021327       -3.06352900194623        1.77923499377582
C           12.69150552996121       -2.43155720621969        1.47504183680130
C           12.66849446039149       -1.19633070889967        0.86456599402490
C           11.45108262365358       -0.58525635646198        0.55557135137318
N           11.44961956314406        0.64046889262664       -0.05593978677119
C           10.31363162338561        1.32815049655515       -0.40652783042746
C           10.48547943885831        2.56056519694201       -1.03971046231924
C            9.39115016099378        3.30432851631254       -1.41802650443563
C            8.12761631557416        2.81216305049127       -1.15559700784842
C            7.93959202803928        1.58319495801901       -0.52123166920848
C            6.50501750693564        1.24782471127572       -0.33036824040238
C            5.82707254978164        1.64917912707693        0.81871732851292
C            4.47407108373047        1.42216870375171        0.96221014867678
C            3.73774338934142        0.80410715589892       -0.05450499635727
C            2.31636024920102        0.53615818569333        0.06167412721191
C            1.62828584506797        0.49805425464815        1.27812923949204
C            0.28111641512880        0.21358217143259        1.31187405607088
C           -0.42418255590761       -0.03156833894724        0.11334664907984
N           -1.70601591578011       -0.29817108641607        0.08052950401462
C           -2.39565031262109       -0.50738022844179       -1.05718909602730
C           -3.81368059650769       -0.78646620977659       -0.92630769815296
C           -4.32521057903149       -1.16598587252629        0.32190369673633
C           -5.66569268856870       -1.43453292766166        0.49263049751319
C           -6.55997076081483       -1.30170569313550       -0.56802424077185
C           -7.98761516554311       -1.68438457145787       -0.41838573352481
C           -8.22681007108492       -3.01858303207374       -0.75161673781082
C           -9.49204851924000       -3.56719655542096       -0.67548479277507
C          -10.53626353731176       -2.77317972629501       -0.25965988575007
C          -10.31355480623477       -1.43598167272514        0.07444257195697
C           -9.03456729447355       -0.85618058477241        0.00163011766126
C           -8.83985157641448        0.61577251274134        0.36647914684630
C           -7.87350879692960        0.72414614246643        1.56115370136283
C           -8.27037780081602        1.36826807487306       -0.85022211851250
C          -10.13654006443967        1.30670187747617        0.76781478317940
C          -10.14306041293386        2.65233236558776        1.11145308497596
C          -11.30428379595091        3.30546459232452        1.48744279924852
C          -12.50506288573589        2.61460326136629        1.52996835144664
C          -12.53011862839179        1.27842544399940        1.19379230887932
C          -11.35554366611188        0.62510086384365        0.81367253928269
N          -11.40166639469445       -0.70263867301962        0.48006309019778
C           -6.05236974565425       -0.95733666187977       -1.81947814316838
C           -4.70934782911159       -0.69781069886244       -1.99769186872983
C           -1.70940214907467       -0.46341569657720       -2.27435240849806
C           -0.35543174883686       -0.21041996629307       -2.30621719911371
C            0.35377642695605        0.02675527902843       -1.10813926260562
N            1.63757611239862        0.28620776630112       -1.07427508796992
C            4.41327179789943        0.45965299465849       -1.23283688474608
C            5.76661766943405        0.68022598735034       -1.36777070814268
C            9.03693102356467        0.80588250525329       -0.13399570928660
H            7.11552298376734       -1.15060926097592       -0.55383954905803
H            8.63615240344645       -1.58244812878807       -1.34613995354700
H            8.06529940776817       -2.50289529334417        0.04521520129169
H            8.60736014567479        0.39351066781762        2.47507693665248
H            8.16645248811771       -1.31228330603951        2.45079418690193
H            7.10368654848866       -0.12903692440059        1.70291385661546
H            9.37833792607443       -2.96883575615329        1.72350424625033
H           11.49956566486765       -4.03220863560695        2.25608816466411
H           13.63451457263901       -2.90074624534273        1.71296295480854
H           13.58950007301478       -0.68699921356728        0.61777181879937
H           12.33983695294472        1.06456498396506       -0.27409067007440
H           11.48797884488811        2.91810596870024       -1.22808526163397
H            9.51777919471648        4.25666083328575       -1.91047871336481
H            7.25508351537737        3.38133242511926       -1.44185257025026
H            6.37070563648717        2.15410947929860        1.60511265481271
H            3.98104963459427        1.75376347590852        1.86375809205229
H            2.16300886793532        0.66830350137436        2.19917625026941
H           -0.26001155924092        0.17083919259571        2.24427410089489
H           -3.63843528573681       -1.25755468837802        1.15019088005523
H           -6.02964580182477       -1.75799296325777        1.45786216224812
H           -7.39256598800818       -3.62519782866397       -1.07305685890921
H           -9.65880637005141       -4.60116732627310       -0.93741185642036
H          -11.53842772756435       -3.17169851859091       -0.18801143074347
H           -6.86696547802956        0.44586749360016        1.26930182140676
H           -8.20273827033997        0.07038166465031        2.36721063155408
H           -7.84634406522440        1.74202034072849        1.93975461831544
H           -7.28561532832697        0.99410821720292       -1.10786623892704
H           -8.93057151527263        1.24407057639526       -1.70717162312484
H           -8.18313759602078        2.42988027828741       -0.63810531395405
H           -9.22320148274247        3.21700470227040        1.09046339823871
H          -11.27034418936223        4.35273299116245        1.74787978560987
H          -13.41498946860672        3.11629679109853        1.82367934265322
H          -13.45626513285689        0.72161627314166        1.21992700942633
H          -12.29554119657380       -1.17143654956321        0.51519932389017
H           -6.72677053292408       -0.88773352542792       -2.66193095329862
H           -4.35810964761346       -0.40932134909586       -2.97709371471515
H           -2.23966207387743       -0.65392908747260       -3.19407794005409
H            0.18807161001411       -0.18657876716684       -3.23800914751391
H            3.84750551285865        0.01212877996124       -2.03647134123042
H            6.26621979590533        0.41140381803576       -2.28835264136948
