  57
       -102.50470519
 O          5.3151591423        2.3558326608        0.1615520524
 C          5.8458333413        1.2234673959        0.0715428505
 C          7.2649183808        1.0873776716       -0.2158622516
 C          7.9641782430        2.2631447123       -0.5703577353
 C          9.2816959595        2.2081933800       -0.9492864986
 C          9.9657960057        0.9944217155       -0.9917478504
 C          9.3089435802       -0.1657581413       -0.6174329813
 C          7.9869774573       -0.1038644168       -0.2286472655
 S          7.2578644836       -1.5956996436        0.4259938330
 O          7.6765770540       -2.7372976832       -0.3427877322
 O          7.5125887512       -1.6341594440        1.8431913874
 C          5.5228894814       -1.2925541577        0.1707354682
 C          4.6796182697       -2.3836148895        0.1166210912
 C          3.3111468200       -2.1992834203        0.0889710820
 C          2.7824137324       -0.8951447938        0.1339780947
 C          1.3354738540       -0.6689530322        0.1087092917
 C          0.4975022770       -1.4672323757       -0.6738293422
 C         -0.8628064082       -1.2535214243       -0.7041508305
 C         -1.4316601449       -0.2285753578        0.0547382038
 N         -2.8146498316       -0.0077847389        0.0248650619
 C         -3.6873932358       -1.0948183587       -0.0227132498
 C         -3.3805140097       -2.2748991728        0.6605029380
 C         -4.2373340265       -3.3545035994        0.6134114144
 C         -5.4128827907       -3.2631688725       -0.1169322743
 Br        -6.5987001325       -4.7487894213       -0.1796655755
 C         -5.7348382808       -2.1015047148       -0.8025394201
 C         -4.8745192936       -1.0243475802       -0.7568574140
 C         -3.3080683449        1.2967358843        0.0349091939
 C         -2.6122676090        2.3199290081       -0.6151138121
 C         -3.0956900510        3.6115564816       -0.6054316816
 C         -4.2836125910        3.8921913634        0.0529349583
 Br        -4.9568853529        5.6706037992        0.0612389227
 C         -4.9876406103        2.8913089673        0.7057591994
 C         -4.5000297632        1.6012337165        0.6983314438
 C         -0.6017221841        0.5734415743        0.8411990388
 C          0.7579216683        0.3567330977        0.8621595326
 C          3.6410043620        0.1861410097        0.1707016379
 C          5.0404775644        0.0198681393        0.1525137334
 H          7.4130638966        3.1914444384       -0.5414481326
 H          9.7923154395        3.1198834946       -1.2233947868
 H         10.9994249464        0.9558337632       -1.2973587321
 H          9.8025253726       -1.1248209699       -0.6108162435
 H          5.1187823478       -3.3688312165        0.1198654137
 H          2.6523833659       -3.0527608388        0.0818549058
 H          0.9244855204       -2.2446482567       -1.2883206786
 H         -1.4953915222       -1.8663019574       -1.3294316947
 H         -2.4704332804       -2.3358667855        1.2374504278
 H         -3.9996500949       -4.2612515431        1.1473219591
 H         -6.6473902506       -2.0447601551       -1.3750664831
 H         -5.1132546745       -0.1247790034       -1.3035535724
 H         -1.6958580112        2.0940520344       -1.1384015313
 H         -2.5582245935        4.3966390448       -1.1137449545
 H         -5.9052634093        3.1229317073        1.2234528017
 H         -5.0362997097        0.8231065058        1.2200141654
 H         -1.0365933150        1.3550652151        1.4464505772
 H          1.3834441462        0.9687748993        1.4929165214
 H          3.2716042666        1.2011851816        0.1647029815
  57
       -102.50454074
 O          5.2654365126       -0.1186041244       -2.5400286571
 C          5.8226531175       -0.1667608627       -1.4179018682
 C          7.2586854616        0.0266159725       -1.2909851727
 C          7.9537192173        0.4543161334       -2.4446438374
 C          9.2915379247        0.7533998114       -2.3867541620
 C         10.0007738135        0.6409012443       -1.1920718314
 C          9.3469042467        0.1915155698       -0.0572212433
 C          8.0041223924       -0.1169697519       -0.1230439086
 S          7.2685571408       -0.8759535641        1.3147196987
 O          7.4363030550       -2.3022612465        1.2043538687
 O          7.7579739785       -0.2536229124        2.5161269251
 C          5.5472368423       -0.4904036354        1.0844675341
 C          4.7318187885       -0.4950069423        2.1979610103
 C          3.3636062728       -0.3778736566        2.0531983358
 C          2.8046633387       -0.2715290209        0.7649568438
 C          1.3552454024       -0.1607183729        0.5833768303
 C          0.7181760939       -0.7816677574       -0.4941906012
 C         -0.6460590191       -0.6929638729       -0.6601204909
 C         -1.4214685780        0.0305646915        0.2486302459
 N         -2.8096481619        0.1170631535        0.0862579987
 C         -3.5239275460       -0.9908699395       -0.3718613974
 C         -3.1463233089       -2.2813107170        0.0091178421
 C         -3.8469673163       -3.3786869090       -0.4458310972
 C         -4.9352077188       -3.1948799764       -1.2857202488
 Br        -5.9052107196       -4.7062276392       -1.9112967572
 C         -5.3253478028       -1.9223184897       -1.6753960937
 C         -4.6212605978       -0.8266397092       -1.2213679693
 C         -3.4724145279        1.3070254731        0.3863554765
 C         -2.8626914913        2.5388725269        0.1329593351
 C         -3.5132430561        3.7171843884        0.4341991052
 C         -4.7830182117        3.6743904282        0.9903576187
 Br        -5.6831735531        5.2979489604        1.4040887742
 C         -5.4049531799        2.4621306681        1.2494620507
 C         -4.7511607004        1.2851285070        0.9501744682
 C         -0.7919181121        0.6629308391        1.3231482399
 C          0.5724018794        0.5659695634        1.4842306026
 C          3.6369392834       -0.2473017724       -0.3372568292
 C          5.0384310306       -0.3194955546       -0.2069010953
 H          7.3838073511        0.5460875941       -3.3574973658
 H          9.7988590503        1.0862021199       -3.2805920004
 H         11.0505647884        0.8840988498       -1.1505356240
 H          9.8577941646        0.0635842667        0.8839034999
 H          5.1914277449       -0.6162729212        3.1661112191
 H          2.7249116787       -0.4195599712        2.9208504237
 H          1.3014148463       -1.3520254835       -1.2000140160
 H         -1.1227581852       -1.1751711536       -1.5006663772
 H         -2.3060174100       -2.4177534049        0.6725101239
 H         -3.5558688833       -4.3727034854       -0.1444110260
 H         -6.1676317856       -1.7918909520       -2.3366309269
 H         -4.9112559698        0.1646510350       -1.5352884048
 H         -1.8800476357        2.5663931992       -0.3125609313
 H         -3.0416913841        4.6658474329        0.2307960094
 H         -6.3891556513        2.4406969039        1.6905876811
 H         -5.2248698487        0.3393124902        1.1655159314
 H         -1.3846831416        1.2165180053        2.0364343361
 H          1.0438099762        1.0663000631        2.3159814337
 H          3.2468030627       -0.1228423908       -1.3366832130
  57
       -102.50444736
 O          5.2188299223       -0.0664344674       -2.5245780428
 C          5.7813374412       -0.1396922575       -1.4075123615
 C          7.1993245148        0.1524001746       -1.2649082769
 C          7.8527994805        0.7283958377       -2.3772725148
 C          9.1608876535        1.1331356294       -2.2882406309
 C          9.8797717253        0.9822989905       -1.1034371866
 C          9.2694607716        0.3872028278       -0.0121223369
 C          7.9570503151       -0.0255607649       -0.1095692508
 S          7.2804840361       -0.9616709837        1.2506526049
 O          7.5106671720       -2.3592866392        0.9911325191
 O          7.7562941605       -0.4421560664        2.5047728480
 C          5.5421990529       -0.6290344423        1.0709559783
 C          4.7406203237       -0.7197410461        2.1905582657
 C          3.3679879413       -0.6311953203        2.0654018425
 C          2.7932902785       -0.4734990212        0.7901558316
 C          1.3414338398       -0.3639411458        0.6251000369
 C          0.6939008490       -0.9657215401       -0.4564609242
 C         -0.6685768545       -0.8480568200       -0.6229714225
 C         -1.4263838804       -0.1070599657        0.2856882569
 N         -2.8088419429        0.0410424762        0.1095053025
 C         -3.5751731669       -1.0337851345       -0.3380273984
 C         -3.2523377039       -2.3388244437        0.0445097202
 C         -4.0087276992       -3.4048070963       -0.3955090591
 C         -5.0984283685       -3.1753796829       -1.2221213647
 Br        -6.1472857251       -4.6432473119       -1.8237449244
 C         -5.4326169651       -1.8883496595       -1.6162582269
 C         -4.6727520872       -0.8242547499       -1.1778254730
 C         -3.4034673197        1.2749156740        0.3753114135
 C         -2.7206377817        2.4607153106        0.0906392863
 C         -3.2999386625        3.6835762218        0.3568447713
 C         -4.5708502563        3.7317566410        0.9097514745
 Br        -5.3732192065        5.4169855576        1.2748611668
 C         -5.2643614194        2.5664304514        1.2001018159
 C         -4.6817985515        1.3444825527        0.9354041889
 C         -0.7873729110        0.4953019191        1.3715677364
 C          0.5733986160        0.3634032823        1.5373644472
 C          3.6101359801       -0.3732898746       -0.3188079164
 C          5.0141991341       -0.4028927715       -0.2042429632
 H          7.2753185537        0.8467595662       -3.2821017672
 H          9.6364172496        1.5803368851       -3.1490042378
 H         10.9055688638        1.3088743460       -1.0373985280
 H          9.7926215576        0.2241145824        0.9169028060
 H          5.2144035649       -0.8802948155        3.1462015739
 H          2.7386898635       -0.7314401232        2.9352274669
 H          1.2682537288       -1.5405287902       -1.1661070057
 H         -1.1554908120       -1.3142407298       -1.4667434107
 H         -2.4115184178       -2.5108005975        0.6989200989
 H         -3.7608122370       -4.4096168242       -0.0912676941
 H         -6.2755862386       -1.7224376924       -2.2686311192
 H         -4.9191293681        0.1770863467       -1.4968698937
 H         -1.7368413034        2.4169729749       -0.3510018640
 H         -2.7718804018        4.5963153598        0.1294179780
 H         -6.2483505341        2.6161323072        1.6394087663
 H         -5.2115471047        0.4349209413        1.1747531807
 H         -1.3703740887        1.0580920772        2.0857475955
 H          1.0553360767        0.8412232525        2.3764059123
 H          3.2028380056       -0.2101882027       -1.3057928692
  57
       -102.50442350
 O          5.3223221995        2.3478205807       -0.3422229652
 C          5.8543713495        1.2183209979       -0.2208725223
 C          7.2842941650        1.0924884129        0.0108257279
 C          8.0014891007        2.2846786259        0.2604527487
 C          9.3379165933        2.2485357962        0.5683564780
 C         10.0246450290        1.0378244656        0.6412881320
 C          9.3481133007       -0.1401595815        0.3724168094
 C          8.0060652228       -0.0981163328        0.0564495326
 S          7.2431017257       -1.6302391177       -0.4491595418
 O          7.4445590547       -1.7873333703       -1.8670116047
 O          7.6840721893       -2.7092945629        0.3936255906
 C          5.5167941410       -1.2971557301       -0.1688782224
 C          4.6683842289       -2.3791160802       -0.0531020841
 C          3.3025517800       -2.1842244833        0.0147278984
 C          2.7801712276       -0.8790372746       -0.0571305106
 C          1.3323813483       -0.6515084630       -0.0306262031
 C          0.4581165379       -1.5322808987       -0.6720858606
 C         -0.9030708476       -1.3213966690       -0.6547870274
 C         -1.4361312673       -0.2178951395        0.0139061023
 N         -2.8207756991       -0.0032121430        0.0388971653
 C         -3.6863429067       -1.0876219855        0.1746536975
 C         -3.3270524247       -2.1826654168        0.9657064619
 C         -4.1784396635       -3.2591936944        1.0998295459
 C         -5.4005975707       -3.2503530081        0.4442267566
 Br        -6.5779582369       -4.7320778480        0.6314289128
 C         -5.7746950617       -2.1742987847       -0.3468829363
 C         -4.9204803090       -1.0999675013       -0.4816009500
 C         -3.3210621786        1.2944074331       -0.0652582791
 C         -2.6783824047        2.2352632984       -0.8748450826
 C         -3.1659829009        3.5213468348       -0.9759057800
 C         -4.3040538417        3.8786974615       -0.2681718692
 Br        -4.9812914229        5.6500055191       -0.4083416843
 C         -4.9551233882        2.9599818953        0.5416311540
 C         -4.4641862151        1.6751566139        0.6431788715
 C         -0.5699998696        0.6679120869        0.6579590821
 C          0.7900826390        0.4527096245        0.6317053572
 C          3.6437319762        0.1931166992       -0.1607509580
 C          5.0424360593        0.0171784016       -0.2020286715
 H          7.4491889916        3.2109655649        0.2075126234
 H          9.8622242980        3.1730726301        0.7605064479
 H         11.0737910710        1.0140503153        0.8901905862
 H          9.8405612157       -1.0996210184        0.3955464785
 H          5.1015622915       -3.3666296504       -0.0202545855
 H          2.6428731502       -3.0286277917        0.1348597101
 H          0.8557270089       -2.3740075002       -1.2175807869
 H         -1.5647996776       -1.9997849753       -1.1730187983
 H         -2.3806255240       -2.1782228139        1.4844659285
 H         -3.9003230430       -4.0988864810        1.7173147730
 H         -6.7236746740       -2.1823819564       -0.8598649792
 H         -5.2008172270       -0.2677902183       -1.1094145285
 H         -1.8003949977        1.9483633697       -1.4330704409
 H         -2.6707934508        4.2422887593       -1.6072121932
 H         -5.8333751396        3.2520842318        1.0958427623
 H         -4.9576097357        0.9623445306        1.2863803545
 H         -0.9758568037        1.5142136729        1.1922984773
 H          1.4438297242        1.1322031821        1.1557651234
 H          3.2799345835        1.2076705466       -0.2335167594
  57
       -102.50432079
 O          5.4114971310        2.3819425616       -0.1112091475
 C          5.9135878558        1.2319895784       -0.1090380595
 C          7.3534817996        1.0527522830       -0.2056957984
 C          8.1290460193        2.2124737852       -0.4341260271
 C          9.4879251256        2.1279889040       -0.6022840110
 C         10.1413093159        0.8977542499       -0.5535499410
 C          9.4043613423       -0.2487184443       -0.3093890844
 C          8.0392245427       -0.1573156701       -0.1322670302
 S          7.1965664133       -1.6535045235        0.3557025245
 O          7.6396919385       -2.7600296743       -0.4499781907
 O          7.3255475316       -1.7953890598        1.7836591687
 C          5.4975654941       -1.2709600880       -0.0140116210
 C          4.6185562032       -2.3319034108       -0.0943366412
 C          3.2602111329       -2.1004826297       -0.1830900865
 C          2.7763574075       -0.7778944378       -0.1764518409
 C          1.3352893543       -0.5170530842       -0.2074217154
 C          0.4707380424       -1.3298378225       -0.9453068817
 C         -0.8909149154       -1.1268847215       -0.9181171384
 C         -1.4356417980       -0.0979184541       -0.1464528854
 N         -2.8242260498        0.0710708673       -0.0790229375
 C         -3.6461546799       -1.0562055136       -0.0268610771
 C         -3.2339138855       -2.1965027196        0.6681296920
 C         -4.0370579695       -3.3165253233        0.7153856463
 C         -5.2637725732       -3.3052519731        0.0685012451
 Br        -6.3729347414       -4.8488991743        0.1317757350
 C         -5.6915522405       -2.1828432371       -0.6246956661
 C         -4.8851568836       -1.0646479809       -0.6726208030
 C         -3.3755631950        1.3502841905       -0.0315358804
 C         -2.7843444865        2.4012936215       -0.7382835953
 C         -3.3268721056        3.6684592793       -0.6918551687
 C         -4.4684224913        3.8966967600        0.0620579495
 Br        -5.2219350251        5.6416887301        0.1230770105
 C         -5.0685942255        2.8675507896        0.7721247532
 C         -4.5229498458        1.6018621223        0.7262910199
 C         -0.5768848842        0.7409040897        0.5669048616
 C          0.7841438347        0.5330323118        0.5321886299
 C          3.6719907406        0.2722317391       -0.1302746807
 C          5.0648100580        0.0571007354       -0.0746668013
 H          7.6026833124        3.1546115202       -0.4759822471
 H         10.0570295443        3.0292874186       -0.7778884248
 H         11.2092731288        0.8352861161       -0.6907069050
 H          9.8664541868       -1.2211961747       -0.2441722501
 H          5.0211251766       -3.3320054971       -0.0572940664
 H          2.5731989782       -2.9310858621       -0.2029524481
 H          0.8753964317       -2.1176918755       -1.5615443086
 H         -1.5464191047       -1.7593918562       -1.4985889850
 H         -2.2837317395       -2.1947854632        1.1799834473
 H         -3.7172927018       -4.1924983907        1.2576819494
 H         -6.6446956172       -2.1883663593       -1.1298243448
 H         -5.2073843757       -0.1940238582       -1.2234579352
 H         -1.9028667105        2.2155702921       -1.3326442112
 H         -2.8700803363        4.4759841273       -1.2422194807
 H         -5.9500150646        3.0587227131        1.3640023054
 H         -4.9765968123        0.8024852928        1.2923506329
 H         -0.9893293407        1.5358222354        1.1705276101
 H          1.4317246629        1.1665683273        1.1177839286
 H          3.3412853405        1.2998837614       -0.1696100631
  57
       -102.50431290
 O          5.1690996290        0.0036631433       -2.4997932979
 C          5.7439376620       -0.1011773043       -1.3913927505
 C          7.1578201200        0.2102014331       -1.2513959132
 C          7.7910255260        0.8346554975       -2.3492299912
 C          9.0926201646        1.2592892920       -2.2577394621
 C          9.8246709638        1.0816002896       -1.0847593820
 C          9.2347239047        0.4394942502       -0.0089321528
 C          7.9288793375        0.0070608730       -0.1090139919
 S          7.2805488983       -0.9863034523        1.2243463610
 O          7.5298019211       -2.3703568943        0.9139815688
 O          7.7605957663       -0.5026928183        2.4912489980
 C          5.5352412130       -0.6767441424        1.0717624501
 C          4.7449851900       -0.8139740943        2.1946968347
 C          3.3698171147       -0.7427893048        2.0837579925
 C          2.7827656393       -0.5580778767        0.8182807237
 C          1.3290657992       -0.4555697246        0.6631438479
 C          0.6796069633       -1.0463258043       -0.4230456020
 C         -0.6816762496       -0.9170883984       -0.5916419883
 C         -1.4338597506       -0.1726662443        0.3184594931
 N         -2.8123786964        0.0037724363        0.1326936304
 C         -3.5988171825       -1.0540553481       -0.3177173943
 C         -3.2999349998       -2.3659711577        0.0615642474
 C         -4.0751040370       -3.4169908414       -0.3814857997
 C         -5.1602331753       -3.1659304438       -1.2079259245
 Br        -6.2351841955       -4.6128652434       -1.8141701879
 C         -5.4707751253       -1.8720794370       -1.5989964016
 C         -4.6920420324       -0.8229193295       -1.1577848041
 C         -3.3743625061        1.2568488008        0.3800485352
 C         -2.6550531704        2.4187850322        0.0867990551
 C         -3.2002577756        3.6611572865        0.3339044504
 C         -4.4731845179        3.7528834698        0.8765611020
 Br        -5.2289517465        5.4650246064        1.2147764123
 C         -5.2020732708        2.6117234975        1.1764207896
 C         -4.6536631596        1.3701148676        0.9305436568
 C         -0.7940567829        0.4116375842        1.4135600341
 C          0.5648658302        0.2656286571        1.5830631804
 C          3.5877862478       -0.4135051407       -0.2942952998
 C          4.9930512066       -0.4208259872       -0.1918027477
 H          7.2028538657        0.9739695155       -3.2441419284
 H          9.5523044579        1.7437354670       -3.1068787967
 H         10.8452108352        1.4238659644       -1.0165014506
 H          9.7689405251        0.2550887674        0.9097813572
 H          5.2295710008       -0.9964810128        3.1409761913
 H          2.7489975144       -0.8764350460        2.9552814967
 H          1.2521486469       -1.6185424595       -1.1362982305
 H         -1.1708137790       -1.3731715396       -1.4396373571
 H         -2.4624472510       -2.5548223390        0.7155933401
 H         -3.8445661880       -4.4270359559       -0.0809167691
 H         -6.3109678551       -1.6891384838       -2.2504211813
 H         -4.9213326950        0.1834112749       -1.4737843417
 H         -1.6698293236        2.3412606464       -0.3469696907
 H         -2.6443410989        4.5552279242        0.0988337207
 H         -6.1874681929        2.6955653406        1.6073198115
 H         -5.2111125275        0.4792040348        1.1770487660
 H         -1.3748915190        0.9743307804        2.1295746690
 H          1.0493957617        0.7311420767        2.4275333532
 H          3.1686602479       -0.2297854046       -1.2727168480
  57
       -102.50426413
 O          5.2712204301        0.9851487354       -2.2474772182
 C          5.8248164712        0.4511731480       -1.2562416467
 C          7.2626703253        0.5511361457       -1.0669935997
 C          7.9673842719        1.3995353659       -1.9514108922
 C          9.3139086009        1.6115157539       -1.7977421800
 C         10.0239017947        0.9956348722       -0.7684093664
 C          9.3588454311        0.1390430502        0.0927076417
 C          8.0059042155       -0.0758669796       -0.0695784077
 S          7.2566529659       -1.3163117059        0.9727659710
 O          7.4466994116       -2.6032985404        0.3534435986
 O          7.7210349174       -1.1735243089        2.3270098406
 C          5.5277035701       -0.9007559406        0.8722634808
 C          4.6972632637       -1.4104105822        1.8492919289
 C          3.3299050282       -1.2371728617        1.7565555499
 C          2.7883183506       -0.5552553717        0.6515039136
 C          1.3377346658       -0.3928618146        0.5093907896
 C          0.4658362741       -1.4245973512        0.8637687562
 C         -0.8973818922       -1.2815880184        0.7245792614
 C         -1.4330016101       -0.0917142554        0.2284753865
 N         -2.8197178288        0.0602510890        0.0875851195
 C         -3.5922277333       -1.0105812410       -0.3590927546
 C         -4.8870446945       -1.2067510511        0.1299927709
 C         -5.6484458643       -2.2692482818       -0.3096048940
 C         -5.1196943804       -3.1502969312       -1.2411937791
 Br        -6.1687325669       -4.6165628745       -1.8461811798
 C         -3.8359563357       -2.9749103680       -1.7360854184
 C         -3.0776722713       -1.9096749807       -1.2977771187
 C         -3.4139282398        1.2835576081        0.3967657811
 C         -4.4982726860        1.7570879559       -0.3471241296
 C         -5.0828176482        2.9679066753       -0.0397985931
 C         -4.5849642197        3.7195499926        1.0141016947
 Br        -5.3919804622        5.3878694424        1.4406264848
 C         -3.5064933583        3.2693630632        1.7609577370
 C         -2.9252376089        2.0571957533        1.4533047411
 C         -0.5689403306        0.9462338175       -0.1249749422
 C          0.7932872346        0.7928310113        0.0113266450
 C          3.6330718393       -0.0441533146       -0.3129047821
 C          5.0332018492       -0.1910547548       -0.2250377786
 H          7.3973161684        1.8727476626       -2.7371444918
 H          9.8280488038        2.2687757091       -2.4838016310
 H         11.0812350334        1.1706434064       -0.6474136635
 H          9.8683777470       -0.3755331773        0.8921581337
 H          5.1458013457       -1.9401127505        2.6750573206
 H          2.6842985574       -1.6098316876        2.5356453104
 H          0.8657405786       -2.3537879110        1.2392779059
 H         -1.5600319689       -2.0854700799        1.0097120592
 H         -5.2884326286       -0.5299228131        0.8689144030
 H         -6.6445605173       -2.4207650451        0.0757706605
 H         -3.4366626347       -3.6626752495       -2.4649717816
 H         -2.0829570931       -1.7616922946       -1.6895284745
 H         -4.8718337946        1.1769466065       -1.1772490799
 H         -5.9158107960        3.3326503094       -0.6200791780
 H         -3.1305079865        3.8600440575        2.5815879708
 H         -2.0924605913        1.6969380898        2.0376453836
 H         -0.9753883365        1.8664369332       -0.5179514265
 H          1.4482881767        1.6054619284       -0.2615012463
 H          3.2516710451        0.4690787449       -1.1834717147
  57
       -102.50416913
 O          5.3559976231        1.0689616692        2.1340544917
 C          5.8743947586        0.4927577058        1.1483911561
 C          7.2953874889        0.6291599669        0.8699823260
 C          8.0114661867        1.5797565832        1.6320045449
 C          9.3337233668        1.8358823754        1.3701229091
 C         10.0064636191        1.1642499254        0.3506192627
 C          9.3326041725        0.2055441063       -0.3871371948
 C          8.0052932254       -0.0531204035       -0.1156117707
 S          7.2444247027       -1.4187298568       -0.9757311017
 O          7.6733702437       -1.4467707604       -2.3484808620
 O          7.4573133259       -2.6151512975       -0.2016455017
 C          5.5191090914       -0.9928278307       -0.8778501444
 C          4.6641843853       -1.5477390262       -1.8077230042
 C          3.3001908746       -1.3664029307       -1.6885575111
 C          2.7848693193       -0.6372353909       -0.5999451126
 C          1.3383347235       -0.4627964681       -0.4377708315
 C          0.4503187142       -1.4839816045       -0.7849266599
 C         -0.9105638339       -1.3216147052       -0.6464718343
 C         -1.4307536270       -0.1237563563       -0.1523018678
 N         -2.8145532874        0.0502294432       -0.0209637896
 C         -3.6136511240       -1.0196741393        0.3827753000
 C         -3.1403980561       -1.9410619973        1.3209687864
 C         -3.9255309981       -3.0041673082        1.7153309130
 C         -5.1942057519       -3.1546428770        1.1755533086
 Br        -6.2796020388       -4.6184107269        1.7193169761
 C         -5.6819271781       -2.2506849006        0.2435922046
 C         -4.8939698903       -1.1899065360       -0.1512145594
 C         -3.3880025102        1.2910497975       -0.2982382124
 C         -2.8777011279        2.0934710520       -1.3226083127
 C         -3.4383720502        3.3239443447       -1.5934475361
 C         -4.5186787436        3.7634666711       -0.8428538862
 Br        -5.2952246897        5.4588105373       -1.2160901637
 C         -5.0401134960        2.9817091734        0.1771156701
 C         -4.4758035086        1.7528079365        0.4480592898
 C         -0.5504017985        0.8994168646        0.2055408241
 C          0.8089580929        0.7289269505        0.0636892756
 C          3.6553375883       -0.0828954082        0.3175322395
 C          5.0526336794       -0.2242387353        0.1922809757
 H          7.4700825006        2.0955430954        2.4109899864
 H          9.8573055665        2.5731900212        1.9610987892
 H         11.0437029989        1.3752717844        0.1436872450
 H          9.8159888698       -0.3566430122       -1.1706016636
 H          5.0909089102       -2.1192981339       -2.6170236171
 H          2.6365698604       -1.7715065166       -2.4355256838
 H          0.8347732556       -2.4207393299       -1.1574596692
 H         -1.5833755443       -2.1164978295       -0.9329385692
 H         -2.1570691573       -1.8120897239        1.7466131481
 H         -3.5591725325       -3.7092436511        2.4448873763
 H         -6.6665834938       -2.3830419159       -0.1767073153
 H         -5.2630197871       -0.4932957694       -0.8886817776
 H         -2.0450183990        1.7412797080       -1.9119902460
 H         -3.0447285329        3.9375845521       -2.3885255488
 H         -5.8747697018        3.3374772378        0.7605943697
 H         -4.8675358909        1.1489889423        1.2525099286
 H         -0.9421432175        1.8240140049        0.6030203859
 H          1.4730808848        1.5349436931        0.3336786714
 H          3.2985504083        0.4687886380        1.1748458238
  57
       -102.50405134
 O          5.3095035613        0.2659016072       -2.5233580838
 C          5.8495080106        0.0510688694       -1.4122730047
 C          7.2449139313       -0.3498826483       -1.3280542812
 C          7.8955640720       -0.6722318928       -2.5405002981
 C          9.1813182932       -1.1511515038       -2.5402087189
 C          9.8806280101       -1.3286697011       -1.3473985194
 C          9.2738254210       -0.9875147653       -0.1502341754
 C          7.9837954392       -0.4994411086       -0.1563605544
 S          7.3225099559        0.0908197282        1.3923677536
 O          7.7160586792       -0.7794688812        2.4681421682
 O          7.6581511439        1.4855561979        1.5246631848
 C          5.5700021030       -0.0366227002        1.1085258665
 C          4.7416600814       -0.1221222372        2.2085411542
 C          3.3704416694       -0.0876296831        2.0467557832
 C          2.8220825523        0.0617972691        0.7584944088
 C          1.3693412664        0.1125326663        0.5686593725
 C          0.7732082765       -0.4690599575       -0.5533121475
 C         -0.5932042709       -0.4516163966       -0.7223459137
 C         -1.4153772593        0.1503823186        0.2328360237
 N         -2.8069274498        0.1409187804        0.0756773746
 C         -3.4321383880       -0.9803038840       -0.4719773895
 C         -2.9518857170       -2.2634931822       -0.1961555869
 C         -3.5623675303       -3.3723180569       -0.7436894173
 C         -4.6631822250       -3.2079954637       -1.5711350936
 Br        -5.5068068069       -4.7359299966       -2.3261308762
 C         -5.1560627768       -1.9431786148       -1.8553272208
 C         -4.5417322822       -0.8355976542       -1.3091226181
 C         -3.5655593402        1.2403401338        0.4766656828
 C         -3.0682900750        2.5376900331        0.3260754929
 C         -3.8166233595        3.6247126977        0.7271717152
 C         -5.0718006300        3.4241813500        1.2819014910
 Br        -6.1057848030        4.9216311506        1.8343965821
 C         -5.5827754529        2.1445533687        1.4398512259
 C         -4.8318025189        1.0590332293        1.0402021530
 C         -0.8278297331        0.7494748163        1.3487973780
 C          0.5403800185        0.7288303799        1.5094873349
 C          3.6661372499        0.1451200107       -0.3313165164
 C          5.0670444739        0.0727706536       -0.1910173775
 H          7.3331449219       -0.5375340963       -3.4525915615
 H          9.6540705617       -1.3991807969       -3.4793858459
 H         10.8880210130       -1.7137985310       -1.3523936585
 H          9.7824002490       -1.0842131021        0.7961111184
 H          5.1944980679       -0.2160829672        3.1830890570
 H          2.7254570815       -0.1911418659        2.9044627084
 H          1.3900579347       -0.9547149746       -1.2930161529
 H         -1.0362929339       -0.9009256634       -1.5987662142
 H         -2.1020946137       -2.3862883296        0.4577255202
 H         -3.1920913128       -4.3612664349       -0.5232257849
 H         -6.0076557408       -1.8268127820       -2.5071597971
 H         -4.9108997791        0.1516831116       -1.5419990501
 H         -2.0961062541        2.6885387046       -0.1176448872
 H         -3.4316790299        4.6248612300        0.6043073069
 H         -6.5564602390        1.9997075347        1.8810442986
 H         -5.2186209514        0.0604931927        1.1763012075
 H         -1.4540205028        1.2163742715        2.0948158935
 H          0.9768827896        1.2062861518        2.3729489371
 H          3.2857189078        0.2798441275       -1.3330849817
