  44
  -64.5392616303000       0.312872328680607      !
 C         -5.6641247182        0.0126296289        0.2311837986
 C         -5.0580376330       -0.4479030346       -0.9256216481
 C         -3.6786378430       -0.4570863886       -1.0328924481
 C         -2.8887987125       -0.0016432316        0.0175871453
 C         -1.4128329132       -0.0091130244       -0.0693018326
 C         -0.7131155670       -1.2238121540       -0.0407982899
 C         -1.3841947344       -2.4734988770        0.0230098924
 C         -0.6935149283       -3.6454515453        0.0532723515
 C          0.7156726243       -3.6414956247        0.0423365386
 C          1.3979443018       -2.4649692443        0.0060465854
 C          0.7171108505       -1.2200102248       -0.0444601562
 C          1.4107319269       -0.0024588888       -0.0685732323
 C          2.8876961326        0.0075824942        0.0180284141
 C          3.5035118496        0.3909842125        1.2054652661
 C          4.8822598685        0.3914915144        1.3113941351
 C          5.6620487162        0.0142017860        0.2309504126
 C          5.0568598368       -0.3628121940       -0.9560945339
 C          3.6773911632       -0.3685764799       -1.0630146555
 C          0.7113393671        1.2095700263       -0.1415512828
 C          1.3869757111        2.4548820009       -0.2326649999
 C          0.6986319998        3.6248844950       -0.3255609684
 C         -0.7106525750        3.6214415673       -0.3382883836
 C         -1.3960206349        2.4489644648       -0.2527447209
 C         -0.7178636912        1.2062361195       -0.1462567293
 C         -3.5062457470        0.4642377012        1.1748436269
 C         -4.8848211931        0.4689831446        1.2811992186
 H         -6.7410339998        0.0167115128        0.3143242138
 H         -5.6627313694       -0.8021274743       -1.7479584144
 H         -3.2047135318       -0.8120132050       -1.9370962666
 H         -2.4637891746       -2.4781015560        0.0471078883
 H         -1.2195629770       -4.5881022200        0.0945185819
 H          1.2480076979       -4.5809473177        0.0740159663
 H          2.4778872052       -2.4607045931        0.0156346211
 H          2.8911754324        0.6836394360        2.0467530115
 H          5.3495276203        0.6878270622        2.2394058180
 H          6.7389759397        0.0154369380        0.3137692479
 H          5.6620694481       -0.6553273538       -1.8018887438
 H          3.2032044874       -0.6629369554       -1.9885093548
 H          2.4671233551        2.4542647385       -0.2398799036
 H          1.2260371840        4.5647103478       -0.4000001379
 H         -1.2410515044        4.5584934691       -0.4248513844
 H         -2.4757846245        2.4458476700       -0.2784279905
 H         -2.8948139884        0.8169735373        1.9933541524
 H         -5.3523462832        0.8290270415        2.1862409131
  44
  -64.5389216142000       0.218326561116775      !
 C         -5.6532072589        0.0144526592        0.3216410338
 C         -5.0823333637       -0.4378709785       -0.8561268742
 C         -3.7066298010       -0.4471348077       -1.0050540129
 C         -2.8856138891        0.0002885526        0.0245889900
 C         -1.4120417426       -0.0107286409       -0.0967822531
 C         -0.7137341763       -1.2264369669       -0.0806190609
 C         -1.3870310764       -2.4751959800       -0.0220005345
 C         -0.6988677520       -3.6488015215       -0.0035253522
 C          0.7102041956       -3.6471193119       -0.0194020754
 C          1.3946703199       -2.4715751518       -0.0475398909
 C          0.7167745183       -1.2246844299       -0.0882205353
 C          1.4116926698       -0.0072371565       -0.1017367103
 C          2.8855749984        0.0068116380        0.0204300144
 C          3.4623364033        0.4322721301        1.2137736377
 C          4.8363838041        0.4397366057        1.3656637251
 C          5.6518005316        0.0264785012        0.3253862063
 C          5.0863981917       -0.3919031181       -0.8673583105
 C          3.7111432226       -0.4036468006       -1.0204814003
 C          0.7128542219        1.2054211210       -0.1791397989
 C          1.3887417469        2.4500104340       -0.2770438090
 C          0.7006515393        3.6201761806       -0.3721115352
 C         -0.7086876953        3.6180068970       -0.3796240140
 C         -1.3943644619        2.4461131258       -0.2881765529
 C         -0.7161956295        1.2035362232       -0.1810833613
 C         -3.4680118451        0.4599247939        1.2025063849
 C         -4.8426404741        0.4644390140        1.3505359686
 H         -6.7271066282        0.0178226851        0.4373501680
 H         -5.7118639169       -0.7855988220       -1.6624641341
 H         -3.2604920764       -0.7962702659       -1.9255540271
 H         -2.4665111730       -2.4777130192        0.0062348247
 H         -1.2267302455       -4.5906860762        0.0321436649
 H          1.2409838467       -4.5877630608        0.0012216932
 H          2.4745291050       -2.4706617574       -0.0409344816
 H          2.8220266277        0.7520519939        2.0235580179
 H          5.2718350073        0.7676428070        2.2984732594
 H          6.7252634164        0.0315683392        0.4442180714
 H          5.7199010242       -0.7111576264       -1.6822684116
 H          3.2693396945       -0.7277443330       -1.9521023742
 H          2.4689018933        2.4493203725       -0.2898561379
 H          1.2287375827        4.5590504113       -0.4537803835
 H         -1.2387066043        4.5551534178       -0.4683224221
 H         -2.4742362119        2.4428429536       -0.3102524986
 H         -2.8317756050        0.8073248654        2.0042054865
 H         -5.2825132473        0.8204294707        2.2709720740
  44
  -64.5386424784000       0.162489253141218      !
 C         -5.6404221753        0.0245204643        0.4020341771
 C         -5.1042748375       -0.4071374288       -0.7995030679
 C         -3.7330290190       -0.4217949874       -0.9860960585
 C         -2.8823300015       -0.0003073113        0.0297811170
 C         -1.4114519190       -0.0148705377       -0.1226110027
 C         -0.7134141849       -1.2306175227       -0.1154547177
 C         -1.3870523573       -2.4796302388       -0.0701961987
 C         -0.6988364633       -3.6532651026       -0.0552524594
 C          0.7103219698       -3.6511544531       -0.0584007232
 C          1.3948726290       -2.4754247604       -0.0754052035
 C          0.7172276401       -1.2284780064       -0.1171955941
 C          1.4115986373       -0.0106527141       -0.1254057407
 C          2.8824597203        0.0075111205        0.0271418901
 C          3.4273191863        0.4446259742        1.2314411299
 C          4.7967951579        0.4560335679        1.4194519573
 C          5.6398625950        0.0358875504        0.4041398643
 C          5.1064447057       -0.3931439149       -0.7995520359
 C          3.7354992311       -0.4094795500       -0.9885776959
 C          0.7125827788        1.2011644392       -0.2148778472
 C          1.3879649883        2.4449287455       -0.3243137915
 C          0.6991969609        3.6141223871       -0.4266742152
 C         -0.7101087626        3.6120565644       -0.4252946112
 C         -1.3953168336        2.4408726625       -0.3218255356
 C         -0.7161924524        1.1990424823       -0.2136240171
 C         -3.4299191355        0.4392735903        1.2319236944
 C         -4.7997539312        0.4489389307        1.4175368506
 H         -6.7107634967        0.0320952870        0.5467668288
 H         -5.7576484798       -0.7357242540       -1.5947773754
 H         -3.3143869496       -0.7561430943       -1.9247979104
 H         -2.4667402458       -2.4820052852       -0.0513050586
 H         -1.2266299500       -4.5955324853       -0.0321427481
 H          1.2411102178       -4.5917938163       -0.0372216598
 H          2.4746408889       -2.4745180915       -0.0612566575
 H          2.7651363442        0.7688134773        2.0217744313
 H          5.2069016140        0.7920824052        2.3608251787
 H          6.7099191335        0.0443038285        0.5508930016
 H          5.7618096877       -0.7165958061       -1.5953159320
 H          3.3191850726       -0.7388435018       -1.9300731065
 H          2.4680082042        2.4438510461       -0.3428429299
 H          1.2266324601        4.5523161607       -0.5192349330
 H         -1.2405049104        4.5486713941       -0.5169386085
 H         -2.4753775725        2.4368449869       -0.3382650494
 H         -2.7697160957        0.7670319530        2.0224393899
 H         -5.2121017502        0.7882970130        2.3567478167
  44
  -64.5384680968000       0.135109039914588      !
 C         -5.6722398724       -0.0078642140       -0.0005414895
 C         -4.9774690944       -0.1675851944       -1.1877275419
 C         -3.5938759948       -0.1652932606       -1.1889910725
 C         -2.8909702260       -0.0020984194       -0.0004639053
 C         -1.4094336694        0.0000307735        0.0001649475
 C         -0.7126875315       -1.2082349230        0.1220933360
 C         -1.3904361468       -2.4493909080        0.2476356894
 C         -0.7026835538       -3.6181226773        0.3578276990
 C          0.7071733943       -3.6183106994        0.3457333970
 C          1.3944582482       -2.4496674640        0.2303406879
 C          0.7167273628       -1.2069304019        0.1211913747
 C          1.4113995521        0.0034967283        0.0005316780
 C          2.8919954442        0.0039565879        0.0005228326
 C          3.5962797652       -0.1110074005        1.1943245488
 C          4.9796524957       -0.1113994141        1.1925317012
 C          5.6737671597       -0.0020877670       -0.0008474961
 C          4.9788959411        0.1103452219       -1.1936581073
 C          3.5954141072        0.1160899833       -1.1939836818
 C          0.7140130461        1.2121503363       -0.1203923475
 C          1.3886342270        2.4565678661       -0.2306997999
 C          0.6983517638        3.6233711515       -0.3461855352
 C         -0.7116353013        3.6198015761       -0.3564845296
 C         -1.3964215695        2.4494550116       -0.2459096962
 C         -0.7154388964        1.2098825874       -0.1212750360
 C         -3.5946601985        0.1588864694        1.1878574980
 C         -4.9782086496        0.1555975002        1.1867191801
 H         -6.7524133835       -0.0102308003       -0.0007379652
 H         -5.5151071377       -0.2934931680       -2.1163004375
 H         -3.0484813131       -0.2898372748       -2.1136710159
 H         -2.4707968061       -2.4455058049        0.2527151702
 H         -1.2303959308       -4.5559612722        0.4521884381
 H          1.2359446962       -4.5567852535        0.4272375827
 H          2.4746523701       -2.4489594184        0.2170178962
 H          3.0514032999       -0.1967611252        2.1237926235
 H          5.5181329356       -0.1970504735        2.1251823983
 H          6.7539725836       -0.0055275675       -0.0012516550
 H          5.5165420874        0.1937203060       -2.1271029027
 H          3.0497321068        0.2036823355       -2.1230322809
 H          2.4688664510        2.4581403061       -0.2189376001
 H          1.2244939350        4.5632265396       -0.4290230573
 H         -1.2415554023        4.5565120346       -0.4499840270
 H         -2.4767882922        2.4427340217       -0.2499661348
 H         -3.0493176232        0.2847572558        2.1122927617
 H         -5.5160557295        0.2778082532        2.1158345972
  44
  -64.5382522245000       0.107516809330583      !
 C         -5.6734005983       -0.0151968176       -0.0040068572
 C         -4.9775781900        0.2636744199       -1.1684018120
 C         -3.5944495674        0.2723489259       -1.1660532986
 C         -2.8907057312       -0.0042640334        0.0016804381
 C         -1.4115807017       -0.0011304072        0.0031454239
 C         -0.7125156236       -1.2121376760        0.0988899393
 C         -1.3869540964       -2.4595214104        0.1707960219
 C         -0.6987719083       -3.6278696331        0.2830423967
 C          0.7095978949       -3.6212168818        0.3363554908
 C          1.3946563218       -2.4486760291        0.2515086994
 C          0.7171240786       -1.2088438041        0.1111014110
 C          1.4123096164        0.0033356082        0.0004437424
 C          2.8911788586        0.0053886701       -0.0007347324
 C          3.5965285573        0.4998674688        1.0917080602
 C          4.9795927886        0.4986217303        1.0906429952
 C          5.6739668149        0.0088904846       -0.0029376771
 C          4.9792004074       -0.4827495679       -1.0952804317
 C          3.5962096557       -0.4870481276       -1.0943730170
 C          0.7129906231        1.2132759852       -0.1089233371
 C          1.3861513867        2.4552996674       -0.2519353916
 C          0.6970566351        3.6255201224       -0.3368257846
 C         -0.7111874996        3.6276715736       -0.2799049403
 C         -1.3953428781        2.4572076186       -0.1649605396
 C         -0.7166837650        1.2120301195       -0.0936943643
 C         -3.5969848387       -0.2856871425        1.1666593168
 C         -4.9801368649       -0.2881073611        1.1632560355
 H         -6.7534253533       -0.0187916718       -0.0062112960
 H         -5.5143873531        0.4780331958       -2.0815354543
 H         -3.0485659115        0.4885909472       -2.0733389928
 H         -2.4663433448       -2.4639766914        0.1312181085
 H         -1.2259300198       -4.5692888812        0.3370525446
 H          1.2394028749       -4.5566339164        0.4423045640
 H          2.4739585457       -2.4440034748        0.2924057098
 H          3.0520418601        0.8794327825        1.9446922285
 H          5.5174573294        0.8812964456        1.9459894840
 H          6.7539950570        0.0089179520       -0.0032700286
 H          5.5168069773       -0.8656660922       -1.9507507212
 H          3.0512965031       -0.8667187963       -1.9470867498
 H          2.4653592348        2.4540026031       -0.2944001002
 H          1.2235185705        4.5625648359       -0.4457734333
 H         -1.2414150340        4.5674208237       -0.3326946271
 H         -2.4746565332        2.4580374696       -0.1233601766
 H         -3.0532792152       -0.4967459691        2.0762456891
 H         -5.5190679333       -0.5046162595        2.0742402779
  44
  -64.5377573418000       6.368600781622970E-002 !
 C         -5.6703575254       -0.0008034312       -0.0081655611
 C         -4.9730468161       -0.0446754133       -1.2037598649
 C         -3.5896601684       -0.0471570481       -1.2013772199
 C         -2.8896141452       -0.0063890633       -0.0007477186
 C         -1.4080224385       -0.0049882209        0.0025507142
 C         -0.7105670404       -1.2164368233        0.0767504396
 C         -1.3904977710       -2.4606913359        0.1486194991
 C         -0.7053781753       -3.6324973905        0.2389821743
 C          0.7038490861       -3.6302663996        0.2725832747
 C          1.3928500414       -2.4590011538        0.2004159286
 C          0.7190494084       -1.2144872417        0.0855878102
 C          1.4143728738        0.0003906989        0.0034537367
 C          2.8928517214        0.0036884391       -0.0001065530
 C          3.6008218685        0.5008575169        1.0895926312
 C          4.9839504573        0.5034577320        1.0839684719
 C          5.6763723509        0.0139995762       -0.0107547964
 C          4.9793885367       -0.4813021756       -1.1000101338
 C          3.5962750629       -0.4890048469       -1.0949787728
 C          0.7145346023        1.2128369567       -0.0774286372
 C          1.3835708834        2.4600795579       -0.1905974334
 C          0.6901528378        3.6288776893       -0.2612443132
 C         -0.7190604172        3.6256607308       -0.2284843826
 C         -1.3996731083        2.4510171375       -0.1405859185
 C         -0.7150147025        1.2092741474       -0.0695333562
 C         -3.5958510365        0.0362787427        1.1961492491
 C         -4.9792292382        0.0394178995        1.1911574258
 H         -6.7504184908        0.0017854321       -0.0110769043
 H         -5.5086007326       -0.0769344821       -2.1414871513
 H         -3.0417427046       -0.0801234550       -2.1323019066
 H         -2.4707035868       -2.4560457679        0.1329415941
 H         -1.2343756088       -4.5729157571        0.2920033585
 H          1.2316868942       -4.5689145636        0.3588539070
 H          2.4723138425       -2.4596597403        0.2349849574
 H          3.0584253254        0.8781611842        1.9444537944
 H          5.5234735515        0.8907189774        1.9363561629
 H          6.7564486848        0.0189230400       -0.0152125633
 H          5.5153394030       -0.8636282920       -1.9566493484
 H          3.0499459772       -0.8716881972       -1.9452507246
 H          2.4630223750        2.4650368465       -0.2245487569
 H          1.2145016142        4.5695277176       -0.3465862932
 H         -1.2517801832        4.5638774794       -0.2817716612
 H         -2.4798732369        2.4425357316       -0.1249713117
 H         -3.0526808881        0.0676954140        2.1299336292
 H         -5.5196146043        0.0738567214        2.1260597430
