  44
  -64.8361470000000       0.126027753099222      !
 C         -5.6734194012       -0.0028437303       -0.0050555157
 C         -4.9768488528        0.3709642080       -1.1420738525
 C         -3.5937053789        0.3764949937       -1.1390588637
 C         -2.8907085100        0.0017066215        0.0014240492
 C         -1.4115803805        0.0015873955        0.0030916814
 C         -0.7150789215       -1.2146562259       -0.0028050900
 C         -1.3921511833       -2.4622585144       -0.0354486342
 C         -0.7064451170       -3.6373497827       -0.0213332541
 C          0.7019281018       -3.6381492120        0.0322977552
 C          1.3894645892       -2.4640675633        0.0457862006
 C          0.7145628257       -1.2154101676        0.0095865974
 C          1.4123134329        0.0003083653        0.0006693116
 C          2.8911838710       -0.0006660172       -0.0003876172
 C          3.5974199597        0.3992276433        1.1295567983
 C          4.9804786416        0.3951585842        1.1283405101
 C          5.6739733151       -0.0028608976       -0.0023921277
 C          4.9783264545       -0.3999564492       -1.1319998313
 C          3.5953296056       -0.4013992224       -1.1314043302
 C          0.7155577182        1.2166286652       -0.0070979742
 C          1.3913509333        2.4648391858       -0.0457595212
 C          0.7047324215        3.6395101872       -0.0324581440
 C         -0.7035120100        3.6398635046        0.0244949114
 C         -1.3901452875        2.4653324177        0.0411722960
 C         -0.7141182406        1.2171285825        0.0080259309
 C         -3.5977411866       -0.3746710256        1.1388112272
 C         -4.9808947539       -0.3738811863        1.1352682316
 H         -6.7534490113       -0.0039639406       -0.0075132344
 H         -5.5130780316        0.6620716371       -2.0340612647
 H         -3.0472410011        0.6667066805       -2.0251010575
 H         -2.4715418745       -2.4611118229       -0.0752208775
 H         -1.2355909122       -4.5788740865       -0.0462267088
 H          1.2297484184       -4.5802651904        0.0596244482
 H          2.4687685289       -2.4651078796        0.0868910940
 H          3.0536140616        0.7072730778        2.0113168210
 H          5.5190277877        0.7038223677        2.0126748948
 H          6.7539992590       -0.0050834166       -0.0027606634
 H          5.5152455352       -0.7111189151       -2.0165172847
 H          3.0497378176       -0.7072748104       -2.0128636862
 H          2.4705595873        2.4648221603       -0.0882235529
 H          1.2331805155        4.5812713431       -0.0626755532
 H         -1.2317531939        4.5818515284        0.0505036991
 H         -2.4694606108        2.4649563786        0.0827359397
 H         -3.0546081218       -0.6622079492        2.0275395285
 H         -5.5204076384       -0.6646827973        2.0249734412
  44
  -64.8361468200000       0.126003750239899      !
 C         -5.6738288830       -0.0029280353       -0.0348104041
 C         -4.9655783155       -0.4032101440       -1.1557111051
 C         -3.5825193617       -0.4043024958       -1.1400246169
 C         -2.8907415706        0.0003200067       -0.0025972836
 C         -1.4119292921        0.0013745615        0.0110864489
 C         -0.7148105352       -1.2146192083        0.0249483782
 C         -1.3917013323       -2.4621315827        0.0661658556
 C         -0.7062244314       -3.6373583351        0.0587373866
 C          0.7020047535       -3.6385817411        0.0037657386
 C          1.3893777459       -2.4646111077       -0.0177787950
 C          0.7147890193       -1.2154563491        0.0118397046
 C          1.4124225580        0.0005738246        0.0112754885
 C          2.8910361642        0.0006276235       -0.0020036741
 C          3.6093011421       -0.4122897520        1.1158250777
 C          4.9923835369       -0.4116630998        1.0987949187
 C          5.6742817225       -0.0027233562       -0.0350862324
 C          4.9668074363        0.4086179301       -1.1522093863
 C          3.5837325941        0.4126866500       -1.1361527741
 C          0.7151158558        1.2167041751        0.0175066054
 C          1.3911168053        2.4648952428        0.0515415994
 C          0.7050183945        3.6397499116        0.0365502115
 C         -0.7031595871        3.6401957765       -0.0178430573
 C         -1.3899044959        2.4657481679       -0.0316974736
 C         -0.7145168389        1.2172568991        0.0043988029
 C         -3.6095358892        0.4029969519        1.1184499079
 C         -4.9927634060        0.3988063494        1.1020419333
 H         -6.7539170758       -0.0039450311       -0.0476019626
 H         -5.4926700350       -0.7154489429       -2.0455198229
 H         -3.0272015537       -0.7137876977       -2.0140376214
 H         -2.4708803658       -2.4607265561        0.1068645430
 H         -1.2351672654       -4.5785770677        0.0912509407
 H          1.2297184743       -4.5809243652       -0.0178349107
 H          2.4684983101       -2.4663469213       -0.0594975047
 H          3.0749517024       -0.7279080241        2.0006569520
 H          5.5402626491       -0.7314647022        1.9733527500
 H          6.7543072580       -0.0046567147       -0.0478908637
 H          5.4942035158        0.7271965969       -2.0397715170
 H          3.0291848848        0.7295755370       -2.0082425222
 H          2.4702183753        2.4646439818        0.0935002311
 H          1.2336503344        4.5813280001        0.0635028866
 H         -1.2313748932        4.5820997682       -0.0448776106
 H         -2.4690829075        2.4663328473       -0.0721887511
 H         -3.0756632676        0.7135957085        2.0053524969
 H         -5.5411090355        0.7109241666        1.9794115453
  44
  -64.8360891300000       0.118541654066723      !
 C         -5.6726428158        0.0031854464       -0.0568202341
 C         -4.9560655033        0.2955036482       -1.2052492477
 C         -3.5732395996        0.2961439424       -1.1796419677
 C         -2.8904714882       -0.0005909615       -0.0043548522
 C         -1.4112874028       -0.0015670418        0.0172202470
 C         -0.7145489777       -1.2157674595        0.0824527415
 C         -1.3921982595       -2.4627294429        0.1254826543
 C         -0.7065870024       -3.6370109151        0.1734503662
 C          0.7027379595       -3.6380685322        0.1650897582
 C          1.3903649092       -2.4650554476        0.1124543589
 C          0.7154000022       -1.2162291602        0.0795855828
 C          1.4127258189       -0.0015523226        0.0169447826
 C          2.8912246986       -0.0004168513       -0.0044708772
 C          3.6181198181       -0.3526721755        1.1283265821
 C          5.0011194837       -0.3487263342        1.1018722876
 C          5.6742341735        0.0026969674       -0.0561862768
 C          4.9581536554        0.3532732314       -1.1885311835
 C          3.5752844080        0.3539183963       -1.1633281490
 C          0.7152555397        1.2136108404       -0.0336852438
 C          1.3904849997        2.4624135712       -0.0572749915
 C          0.7029035207        3.6359286665       -0.0960696518
 C         -0.7063738193        3.6351080072       -0.1034887619
 C         -1.3921188696        2.4604794452       -0.0689931539
 C         -0.7143703924        1.2132230610       -0.0362819270
 C         -3.6173236785       -0.2952914449        1.1443991685
 C         -5.0003211300       -0.2908830681        1.1174979468
 H         -6.7525161060        0.0047008195       -0.0771008633
 H         -5.4762062304        0.5244752349       -2.1239560962
 H         -3.0109549033        0.5223807084       -2.0746331585
 H         -2.4721962818       -2.4619609185        0.1145461189
 H         -1.2363155059       -4.5777933866        0.2085872288
 H          1.2312997409       -4.5798726336        0.1918554792
 H          2.4701288527       -2.4679049913        0.0894232160
 H          3.0907643812       -0.6237672410        2.0320070057
 H          5.5557625725       -0.6216701505        1.9879230757
 H          6.7541901779        0.0038985239       -0.0762202889
 H          5.4788229598        0.6275800673       -2.0946602065
 H          3.0138834113        0.6245043409       -2.0463497540
 H          2.4702411739        2.4646939414       -0.0347404487
 H          1.2314543250        4.5779190221       -0.1123359216
 H         -1.2360450447        4.5763354684       -0.1271712706
 H         -2.4721349456        2.4595494446       -0.0571784674
 H         -3.0901267788       -0.5224682818        2.0601148695
 H         -5.5555337848       -0.5177790197        2.0159624028
  44
  -64.8360839400000       0.117892404082083      !
 C         -5.6755882420        0.0031920044       -0.0008477792
 C         -4.9802965358       -0.3768609317       -1.1366500808
 C         -3.5971953605       -0.3807448070       -1.1360887538
 C         -2.8917912650       -0.0002457861        0.0014229264
 C         -1.4134294575       -0.0003323620        0.0014185946
 C         -0.7153938316       -1.2155342819       -0.0461250019
 C         -1.3889417043       -2.4653735769       -0.0589479952
 C         -0.7003310863       -3.6382166443       -0.1021748825
 C          0.7086977556       -3.6359553343       -0.1246499778
 C          1.3932343686       -2.4605287888       -0.0946587692
 C          0.7143169162       -1.2142082483       -0.0553808695
 C          1.4106424118        0.0005434145       -0.0015079769
 C          2.8904027069        0.0003266052       -0.0010915933
 C          3.5940322180        0.2626844557        1.1697838609
 C          4.9772763698        0.2579124858        1.1708471106
 C          5.6729800576       -0.0040249182        0.0024571935
 C          4.9794046105       -0.2632775474       -1.1678162129
 C          3.5961324666       -0.2636650608       -1.1703063382
 C          0.7137480153        1.2148540895        0.0534883522
 C          1.3920753006        2.4616107046        0.0900337340
 C          0.7069162707        3.6366688756        0.1208267740
 C         -0.7022597483        3.6380964573        0.1026008955
 C         -1.3902317275        2.4647831512        0.0619203043
 C         -0.7160123560        1.2153022215        0.0474296355
 C         -3.5981089856        0.3816976416        1.1379172770
 C         -4.9812292881        0.3812881825        1.1361773489
 H         -6.7556804105        0.0052887802       -0.0019832766
 H         -5.5175784003       -0.6714274387       -2.0265421340
 H         -3.0524273856       -0.6737087008       -2.0224345607
 H         -2.4683805461       -2.4692071202       -0.0261419726
 H         -1.2281145309       -4.5807238313       -0.1108036087
 H          1.2391592360       -4.5764731942       -0.1557610622
 H          2.4733325830       -2.4579819917       -0.0946893640
 H          3.0484606871        0.4658029302        2.0803750386
 H          5.5141327243        0.4595199508        2.0865278493
 H          6.7530579192       -0.0060571479        0.0039104607
 H          5.5180393721       -0.4665231611       -2.0820735884
 H          3.0523312762       -0.4649096887       -2.0823784544
 H          2.4721891503        2.4596223354        0.0864300081
 H          1.2368943910        4.5775683798        0.1489621144
 H         -1.2306621139        4.5802304955        0.1129076563
 H         -2.4698093975        2.4681792362        0.0325704412
 H         -3.0542803194        0.6730481244        2.0253363237
 H         -5.5193424936        0.6778473512        2.0248613406
  44
  -64.8360837100000       0.117863714353046      !
 C         -5.6735013198        0.0058914601       -0.0657233023
 C         -4.9531067751        0.4322596696       -1.1689328375
 C         -3.5704128878        0.4322871801       -1.1378182167
 C         -2.8909668300        0.0013906254       -0.0025408108
 C         -1.4123987237       -0.0016275007        0.0232563797
 C         -0.7154576456       -1.2177158595       -0.0054839084
 C         -1.3912177857       -2.4651275272       -0.0641103052
 C         -0.7043112761       -3.6390322131       -0.1022305219
 C          0.7049648845       -3.6390575351       -0.0993436196
 C          1.3912172459       -2.4648847553       -0.0602426818
 C          0.7144639941       -1.2178304004       -0.0054988566
 C          1.4115917543       -0.0021287759        0.0204957280
 C          2.8905143050        0.0001365689       -0.0079043696
 C          3.5677540452        0.4002283146       -1.1555978686
 C          4.9503857426        0.3986374118       -1.1892530751
 C          5.6725338511        0.0026009373       -0.0759643183
 C          5.0058967926       -0.3940354260        1.0712008875
 C          3.6230453517       -0.3976172287        1.1057557412
 C          0.7148245436        1.2132430559        0.0626341457
 C          1.3923314644        2.4593183662        0.1272908576
 C          0.7064267489        3.6330915394        0.1828660395
 C         -0.7028798005        3.6335280851        0.1885856113
 C         -1.3903362778        2.4604409259        0.1366768014
 C         -0.7147878717        1.2136196265        0.0654954957
 C         -3.6219769611       -0.4264258363        1.1010292927
 C         -5.0048682239       -0.4221033455        1.0689087709
 H         -6.7532726286        0.0070313099       -0.0903493296
 H         -5.4701868610        0.7662889193       -2.0568122372
 H         -3.0053804085        0.7628130710       -1.9978480715
 H         -2.4709887993       -2.4655829001       -0.0835153952
 H         -1.2333240379       -4.5799338005       -0.1443064529
 H          1.2342640584       -4.5799394574       -0.1382704446
 H          2.4711264243       -2.4642309001       -0.0751170404
 H          3.0011086226        0.7068580799       -2.0234039513
 H          5.4660137326        0.7076706145       -2.0869637869
 H          6.7522464771        0.0031869332       -0.1024345509
 H          5.5654413231       -0.7025874812        1.9423149350
 H          3.1005023008       -0.7045789469        2.0006221411
 H          2.4723196543        2.4577815617        0.1403223267
 H          1.2360488563        4.5732305120        0.2334050724
 H         -1.2314595252        4.5740538534        0.2437193748
 H         -2.4701468667        2.4606345478        0.1583666323
 H         -3.0981507956       -0.7574695640        1.9864915956
 H         -5.5629244545       -0.7543512699        1.9323032341
  44
  -64.8359690500000       0.104396523319182      !
 C         -5.6703488900        0.0098618864       -0.0082459954
 C         -4.9729280584        0.0669106501       -1.2032197765
 C         -3.5895482661        0.0618034702       -1.2010473398
 C         -2.8896207487       -0.0012233869       -0.0013112238
 C         -1.4080293968       -0.0027129638        0.0021055671
 C         -0.7127073866       -1.2172993238       -0.0272989244
 C         -1.3948264381       -2.4619523568       -0.0618341144
 C         -0.7117733584       -3.6383977689       -0.0717530728
 C          0.6974503484       -3.6415179127       -0.0380737814
 C          1.3885118896       -2.4695784961       -0.0100618490
 C          0.7169088773       -1.2186232953       -0.0183169577
 C          1.4143708302       -0.0023911453        0.0034848677
 C          2.8928537268       -0.0014002090        0.0002297212
 C          3.6015217298        0.3997584372        1.1283717935
 C          4.9846536184        0.4003980250        1.1230000991
 C          5.6763897812        0.0048895092       -0.0094796995
 C          4.9787112930       -0.3944657897       -1.1370201755
 C          3.5955856808       -0.4001386880       -1.1326743680
 C          0.7166687475        1.2137634621        0.0263161524
 C          1.3879050910        2.4649357762        0.0199569467
 C          0.6965452086        3.6367170256        0.0492631967
 C         -0.7126766524        3.6331940585        0.0816189555
 C         -1.3953583297        2.4565319782        0.0689926856
 C         -0.7128858276        1.2120526454        0.0338682383
 C         -3.5959700612       -0.0595673673        1.1948576891
 C         -4.9793398463       -0.0535825103        1.1901416722
 H         -6.7504031977        0.0145878972       -0.0109338278
 H         -5.5083901675        0.1157002696       -2.1402848817
 H         -3.0415429762        0.1074038182       -2.1313870165
 H         -2.4750199882       -2.4540878758       -0.0770665365
 H         -1.2424245164       -4.5789800740       -0.0991485240
 H          1.2236306702       -4.5850301318       -0.0321822072
 H          2.4679674349       -2.4750806760        0.0243329333
 H          3.0596520755        0.7037184125        2.0122978576
 H          5.5247197501        0.7125887492        2.0053190563
 H          6.7564737664        0.0082770038       -0.0134933018
 H          5.5141267683       -0.7032669009       -2.0231462822
 H          3.0487212490       -0.7079367245       -2.0124948443
 H          2.4673689317        2.4708739233       -0.0134398319
 H          1.2225532044        4.5802953392        0.0444753837
 H         -1.2437448661        4.5734714769        0.1085536791
 H         -2.4755740919        2.4486480345        0.0838189626
 H         -3.0528925867       -0.1088733615        2.1279224572
 H         -5.5198110982       -0.0980683492        2.1245701366
  44
  -64.8358836000000       9.537091179474816E-002 !
 C         -5.6722448732       -0.0020776480       -0.0010445558
 C         -4.9775680361       -0.0596827797       -1.1975953025
 C         -3.5939732621       -0.0586835452       -1.1986987658
 C         -2.8909708436        0.0008599070       -0.0005551684
 C         -1.4094329328        0.0014354543        0.0002097397
 C         -0.7139091361       -1.2135423201        0.0176270287
 C         -1.3929126758       -2.4602155722        0.0358545535
 C         -0.7063419991       -3.6347866545        0.0449833738
 C          0.7035147277       -3.6353520282        0.0328750313
 C          1.3919810050       -2.4618057155        0.0185154915
 C          0.7155063959       -1.2136040962        0.0167973812
 C          1.4114023226        0.0020169832        0.0007879728
 C          2.8919979266        0.0009852534        0.0007738424
 C          3.5960988660       -0.2170524816        1.1802216261
 C          4.9794706017       -0.2186814269        1.1783597183
 C          5.6737622298       -0.0077193071       -0.0011962281
 C          4.9790717868        0.2077020141       -1.1798748037
 C          3.5955964504        0.2148463404       -1.1796625513
 C          0.7152384915        1.2172953927       -0.0155952629
 C          1.3911170182        2.4659094300       -0.0183635389
 C          0.7020148320        3.6390175522       -0.0329323990
 C         -0.7079745261        3.6377675803       -0.0434577288
 C         -1.3939436598        2.4629365906       -0.0340449117
 C         -0.7142149566        1.2165512225       -0.0166265743
 C         -3.5945656637        0.0596354733        1.1972358114
 C         -4.9781166563        0.0578496719        1.1958604958
 H         -6.7524202052       -0.0033310231       -0.0014113086
 H         -5.5152799938       -0.1046274856       -2.1335445157
 H         -3.0486518924       -0.1036949407       -2.1306848955
 H         -2.4732691668       -2.4556945744        0.0412824673
 H         -1.2350025821       -4.5767353349        0.0582575357
 H          1.2313373740       -4.5778909512        0.0332535802
 H          2.4721760433       -2.4610406716        0.0052703775
 H          3.0510839542       -0.3819704970        2.0988705034
 H          5.5178119692       -0.3848619048        2.1001553745
 H          6.7539636693       -0.0121990663       -0.0019278364
 H          5.5168542157        0.3705999170       -2.1026902250
 H          3.0500552750        0.3826579939       -2.0977021147
 H          2.4713496114        2.4653756885       -0.0065423972
 H          1.2291065876        4.5819849146       -0.0345524372
 H         -1.2369470677        4.5795829673       -0.0559389019
 H         -2.4743163645        2.4576775407       -0.0386322199
 H         -3.0491489817        0.1048916420        2.1290593238
 H         -5.5158930250        0.1001469597        2.1320644931
  44
  -64.8357889600000       8.628243682571032E-002 !
 C         -5.6641178569        0.0051959263        0.2316380474
 C         -5.0588396385       -0.3582534704       -0.9596526580
 C         -3.6794472481       -0.3613422960       -1.0673663145
 C         -2.8887982035        0.0029838898        0.0174941447
 C         -1.4128392616       -0.0003056220       -0.0697693294
 C         -0.7156839058       -1.2146059792       -0.1429802883
 C         -1.3894005846       -2.4638330165       -0.1838860920
 C         -0.7011930307       -3.6356648083       -0.2517689492
 C          0.7080012416       -3.6337800156       -0.2623873328
 C          1.3927525858       -2.4597818836       -0.2001787382
 C          0.7145478436       -1.2135273486       -0.1463638598
 C          1.4107332001        0.0003095993       -0.0685904239
 C          2.8877031469       -0.0000417556        0.0184933988
 C          3.5041584011        0.2814084059        1.2338126485
 C          4.8828896124        0.2701471300        1.3393622245
 C          5.6620337246       -0.0171038234        0.2311212011
 C          5.0562186731       -0.2922438267       -0.9832736802
 C          3.6767558835       -0.2861366848       -1.0902506672
 C          0.7139032276        1.2156679503       -0.0399214917
 C          1.3921716829        2.4628096061       -0.0265916020
 C          0.7063048702        3.6379313563       -0.0212860100
 C         -0.7029820365        3.6385369875       -0.0342050465
 C         -1.3908281195        2.4644612371       -0.0469937191
 C         -0.7153030103        1.2157533260       -0.0448368147
 C         -3.5054251531        0.3717490428        1.2096820138
 C         -4.8840024134        0.3704903183        1.3161124822
 H         -6.7410277749        0.0045813337        0.3148681019
 H         -5.6641625698       -0.6411864759       -1.8087111300
 H         -3.2061445647       -0.6404031475       -1.9981033634
 H         -2.4690056788       -2.4681581752       -0.1602178266
 H         -1.2292295729       -4.5773510792       -0.2894846333
 H          1.2383535374       -4.5737104575       -0.3094076142
 H          2.4727007219       -2.4586115636       -0.1903072700
 H          2.8923216585        0.5039697173        2.0966511625
 H          5.3506502593        0.4868460973        2.2888890157
 H          6.7389495743       -0.0250705275        0.3137136583
 H          5.6609295504       -0.5142736469       -1.8505908954
 H          3.2020801329       -0.5010634149       -2.0371038574
 H          2.4723166337        2.4605199736       -0.0338725028
 H          1.2356972400        4.5795758682       -0.0168832758
 H         -1.2313955705        4.5806620408       -0.0420768332
 H         -2.4705926764        2.4657804635       -0.0728080413
 H         -2.8933668126        0.6535044528        2.0548029061
 H         -5.3508952377        0.6545667425        2.2481121937
  44
  -64.8354851500000       6.256061267285083E-002 !
 C         -5.6532146062        0.0017051679        0.3218320279
 C         -5.0832505130       -0.3519864768       -0.8896439626
 C         -3.7075460724       -0.3522200949       -1.0388506688
 C         -2.8856087575        0.0054784590        0.0245825915
 C         -1.4120456902        0.0009477208       -0.0973132139
 C         -0.7167878146       -1.2136046445       -0.1828730073
 C         -1.3932209464       -2.4611971387       -0.2288632969
 C         -0.7080022871       -3.6339621376       -0.3085985258
 C          0.7010724585       -3.6344970294       -0.3243061312
 C          1.3884856173       -2.4624394874       -0.2540640374
 C          0.7137222076       -1.2148152350       -0.1903288760
 C          1.4116895055       -0.0022503073       -0.1020127677
 C          2.8855790578       -0.0021673669        0.0208724496
 C          3.4631764021        0.3205707323        1.2456013090
 C          4.8372091817        0.3118578100        1.3975571660
 C          5.6517869316       -0.0150157739        0.3263518795
 C          5.0855662292       -0.3307784346       -0.8971882817
 C          3.7103154044       -0.3262235887       -1.0507306110
 C          0.7159047965        1.2143846688       -0.0777334338
 C          1.3949255988        2.4611004671       -0.0712397559
 C          0.7097860559        3.6368419067       -0.0681164703
 C         -0.6995527330        3.6388478145       -0.0757568808
 C         -1.3881794683        2.4651372073       -0.0826057823
 C         -0.7131448974        1.2162578165       -0.0798002711
 C         -3.4670785913        0.3664735179        1.2368192196
 C         -4.8417198244        0.3620465251        1.3847343490
 H         -6.7271242267       -0.0019147554        0.4374384270
 H         -5.7134960200       -0.6294917892       -1.7222210159
 H         -3.2621084369       -0.6242836958       -1.9853291015
 H         -2.4727093291       -2.4633552694       -0.2009164890
 H         -1.2382286102       -4.5742021023       -0.3518010762
 H          1.2294909192       -4.5749011951       -0.3824178826
 H          2.4683420238       -2.4647935773       -0.2474261861
 H          2.8235149395        0.5731268772        2.0793009667
 H          5.2733021821        0.5595232635        2.3545099196
 H          6.7252365040       -0.0225759240        0.4451725148
 H          5.7184230639       -0.5823653783       -1.7359516508
 H          3.2678794101       -0.5701771526       -2.0061803776
 H          2.4750830552        2.4587714184       -0.0840857232
 H          1.2402371664        4.5779278594       -0.0710043774
 H         -1.2272062232        4.5814572290       -0.0857738133
 H         -2.4680517898        2.4664363972       -0.1048570573
 H         -2.8301273544        0.6440231907        2.0647468211
 H         -5.2808753497        0.6409307070        2.3317221650
  44
  -64.8351750600000       4.506023954653589E-002 !
 C         -5.6404275904        0.0070456866        0.4026437685
 C         -5.1052251647       -0.3240993449       -0.8307967803
 C         -3.7339810659       -0.3270429312       -1.0179540390
 C         -2.8823262682        0.0055070818        0.0296344821
 C         -1.4114584893       -0.0004914462       -0.1234333912
 C         -0.7169156847       -1.2145797629       -0.2180297660
 C         -1.3941479983       -2.4610528812       -0.2774489941
 C         -0.7093080162       -3.6338002815       -0.3607614151
 C          0.6998514033       -3.6354940445       -0.3637139689
 C          1.3877787981       -2.4644423118       -0.2822719248
 C          0.7137267730       -1.2164244312       -0.2195773300
 C          1.4115931459       -0.0041890976       -0.1258492542
 C          2.8824626186       -0.0030921367        0.0276916889
 C          3.4282774936        0.3301446927        1.2643473522
 C          4.7977341266        0.3218337891        1.4526611867
 C          5.6398424643       -0.0143070907        0.4057577135
 C          5.1054921750       -0.3395727044       -0.8296162713
 C          3.7345521477       -0.3360833850       -1.0193537574
 C          0.7160812554        1.2128740167       -0.1136088520
 C          1.3950583709        2.4594823583       -0.1185811355
 C          0.7096750828        3.6351205632       -0.1227504502
 C         -0.6996310612        3.6370074176       -0.1215566031
 C         -1.3882241550        2.4632522359       -0.1164569182
 C         -0.7126944457        1.2147715592       -0.1125451462
 C         -3.4289478459        0.3445296179        1.2643411582
 C         -4.7987950181        0.3425764399        1.4501042871
 H         -6.7107784435        0.0055671444        0.5474965486
 H         -5.7593431462       -0.5831028732       -1.6507812198
 H         -3.3160689265       -0.5828747775       -1.9813389651
 H         -2.4738428855       -2.4618892749       -0.2588290185
 H         -1.2398101534       -4.5731720255       -0.4165830326
 H          1.2279317565       -4.5761321996       -0.4213171837
 H          2.4675416863       -2.4678340615       -0.2680909610
 H          2.7668330416        0.5889685296        2.0790324689
 H          5.2085712956        0.5767488493        2.4188551637
 H          6.7098825024       -0.0212836845        0.5527065366
 H          5.7601222473       -0.5971894464       -1.6496514209
 H          3.3175265238       -0.5843089206       -1.9851101511
 H          2.4750985823        2.4568468145       -0.1371292967
 H          1.2398246805        4.5762455449       -0.1364771370
 H         -1.2273134783        4.5795303958       -0.1345079531
 H         -2.4682879156        2.4637264838       -0.1331819769
 H         -2.7680016993        0.6030861044        2.0795143897
 H         -5.2103986758        0.6033399317        2.4144158037
