  43
        -65.15449356
 C         -2.3506800922        3.6353007450       -0.1062041233
 C         -0.9670244041        3.6749317714       -0.1533537444
 C         -0.2467693321        2.4935358691       -0.1326210148
 C         -0.8862231612        1.2656180677       -0.0665926901
 C         -2.2817895409        1.2294341239       -0.0204831023
 C         -3.0047317721        2.4215147042       -0.0410025086
 N         -2.9445439138        0.0249981215        0.0465593969
 C         -2.3051354646       -1.1926153480       -0.0077619221
 C         -3.0510741434       -2.3705893017       -0.0167654795
 C         -2.4206479005       -3.5973555964       -0.0691751379
 C         -1.0379558784       -3.6643281722       -0.1144312012
 C         -0.2949086085       -2.4969415904       -0.1051439344
 C         -0.9104728868       -1.2562653419       -0.0525042247
 C         -0.0636815448       -0.0034618954       -0.0268155837
 C          0.8396136608       -0.0023248541        1.1921006300
 C          0.4774668823        0.0062867184        2.5206387757
 C          1.4804267023        0.0090217521        3.4808568390
 C          2.8167957408        0.0044733586        3.1110795452
 C          3.1853039275       -0.0046174319        1.7751178037
 C          2.1891020413       -0.0082628467        0.8130759297
 C          2.2604992868       -0.0185125591       -0.6402362945
 C          3.3461162930       -0.0288222266       -1.5001973687
 C          3.1099728557       -0.0390683686       -2.8658219633
 C          1.8161777900       -0.0396116380       -3.3645730132
 C          0.7240410333       -0.0287409164       -2.5070194103
 C          0.9541625422       -0.0179449631       -1.1492890577
 H         -2.9221720539        4.5513262264       -0.1207535127
 H         -0.4509436138        4.6211933157       -0.2044706384
 H          0.8324664538        2.5199164910       -0.1670031638
 H         -4.0846655681        2.3826700938       -0.0046453351
 H         -3.9526810760        0.0347637770        0.0571692010
 H         -4.1301450150       -2.3104390601        0.0177550813
 H         -3.0099260589       -4.5021707065       -0.0758602514
 H         -0.5404946746       -4.6209674834       -0.1567265536
 H          0.7835720733       -2.5443176008       -0.1391853463
 H         -0.5637117935        0.0105559763        2.8091071480
 H          1.2169118085        0.0148500070        4.5282353970
 H          3.5803005786        0.0068229129        3.8754051173
 H          4.2275990260       -0.0083992699        1.4922553410
 H          4.3557855024       -0.0281592291       -1.1166246200
 H          3.9445900697       -0.0477590940       -3.5517891684
 H          1.6564085722       -0.0484701197       -4.4327093109
 H         -0.2840536865       -0.0291094899       -2.8956512543
