  43
  -65.1544935600000       0.279956393774179      !
 C         -2.3506800922        3.6353007450       -0.1062041233
 C         -0.9670244041        3.6749317714       -0.1533537444
 C         -0.2467693321        2.4935358691       -0.1326210148
 C         -0.8862231612        1.2656180677       -0.0665926901
 C         -2.2817895409        1.2294341239       -0.0204831023
 C         -3.0047317721        2.4215147042       -0.0410025086
 N         -2.9445439138        0.0249981215        0.0465593969
 C         -2.3051354646       -1.1926153480       -0.0077619221
 C         -3.0510741434       -2.3705893017       -0.0167654795
 C         -2.4206479005       -3.5973555964       -0.0691751379
 C         -1.0379558784       -3.6643281722       -0.1144312012
 C         -0.2949086085       -2.4969415904       -0.1051439344
 C         -0.9104728868       -1.2562653419       -0.0525042247
 C         -0.0636815448       -0.0034618954       -0.0268155837
 C          0.8396136608       -0.0023248541        1.1921006300
 C          0.4774668823        0.0062867184        2.5206387757
 C          1.4804267023        0.0090217521        3.4808568390
 C          2.8167957408        0.0044733586        3.1110795452
 C          3.1853039275       -0.0046174319        1.7751178037
 C          2.1891020413       -0.0082628467        0.8130759297
 C          2.2604992868       -0.0185125591       -0.6402362945
 C          3.3461162930       -0.0288222266       -1.5001973687
 C          3.1099728557       -0.0390683686       -2.8658219633
 C          1.8161777900       -0.0396116380       -3.3645730132
 C          0.7240410333       -0.0287409164       -2.5070194103
 C          0.9541625422       -0.0179449631       -1.1492890577
 H         -2.9221720539        4.5513262264       -0.1207535127
 H         -0.4509436138        4.6211933157       -0.2044706384
 H          0.8324664538        2.5199164910       -0.1670031638
 H         -4.0846655681        2.3826700938       -0.0046453351
 H         -3.9526810760        0.0347637770        0.0571692010
 H         -4.1301450150       -2.3104390601        0.0177550813
 H         -3.0099260589       -4.5021707065       -0.0758602514
 H         -0.5404946746       -4.6209674834       -0.1567265536
 H          0.7835720733       -2.5443176008       -0.1391853463
 H         -0.5637117935        0.0105559763        2.8091071480
 H          1.2169118085        0.0148500070        4.5282353970
 H          3.5803005786        0.0068229129        3.8754051173
 H          4.2275990260       -0.0083992699        1.4922553410
 H          4.3557855024       -0.0281592291       -1.1166246200
 H          3.9445900697       -0.0477590940       -3.5517891684
 H          1.6564085722       -0.0484701197       -4.4327093109
 H         -0.2840536865       -0.0291094899       -2.8956512543
  43
  -65.1544259100000       0.260615716946533      !
 C         -2.3672292140        3.6307400379       -0.1219842685
 C         -1.0114323393        3.6760315730        0.1564847371
 C         -0.2860109449        2.4994133661        0.2267346201
 C         -0.8941205327        1.2705794062        0.0258525376
 C         -2.2629964164        1.2285533923       -0.2499910375
 C         -2.9905547262        2.4154984473       -0.3217671090
 N         -2.8936352773        0.0214174776       -0.4538972028
 C         -2.2789845922       -1.1915026742       -0.2363097538
 C         -3.0219462326       -2.3696704653       -0.2946928332
 C         -2.4143413846       -3.5906156124       -0.0814643000
 C         -1.0591679389       -3.6504476617        0.1973705637
 C         -0.3187297924       -2.4826057893        0.2547775805
 C         -0.9109621674       -1.2482650878        0.0404769060
 C         -0.0652505982        0.0059871362        0.0618980530
 C          0.8888979585        0.0038803341        1.2372467120
 C          0.5857520510        0.0162265277        2.5807256913
 C          1.6296144613        0.0074047857        3.4965837183
 C          2.9485130884       -0.0135519576        3.0691438522
 C          3.2584579002       -0.0255395517        1.7183497452
 C          2.2213335782       -0.0166266334        0.8005203512
 C          2.2298201629       -0.0260682362       -0.6544717304
 C          3.2768682333       -0.0469896650       -1.5607064785
 C          2.9817667616       -0.0521644397       -2.9147468071
 C          1.6677551750       -0.0362967702       -3.3571551444
 C          0.6140223905       -0.0155259875       -2.4531680563
 C          0.9035737286       -0.0107958838       -1.1070263326
 H         -2.9413682986        4.5432598442       -0.1823348764
 H         -0.5198759506        4.6234734114        0.3151317444
 H          0.7726227843        2.5311725790        0.4385545180
 H         -4.0490803663        2.3719640375       -0.5374876261
 H         -3.8898070559        0.0271455405       -0.6101836002
 H         -4.0799658259       -2.3148427254       -0.5106634485
 H         -3.0001159381       -4.4962784512       -0.1321960947
 H         -0.5795945476       -4.6023940162        0.3656772330
 H          0.7394278270       -2.5259191229        0.4667481826
 H         -0.4418090260        0.0324438586        2.9140311573
 H          1.4120086681        0.0166443734        4.5545035485
 H          3.7445440520       -0.0208984278        3.7995112140
 H          4.2872874117       -0.0422458280        1.3902213013
 H          4.3021443312       -0.0595473936       -1.2214461617
 H          3.7856705572       -0.0695441805       -3.6362281761
 H          1.4617786845       -0.0415743769       -4.4174567266
 H         -0.4097707633       -0.0041420890       -2.7980325214
  43
  -65.1543977800000       0.252972288875668      !
 C         -2.3653146659        3.6266990026       -0.1040701533
 C         -0.9973623257        3.6662725532       -0.3162922538
 C         -0.2692828800        2.4891288246       -0.3191271740
 C         -0.8869076751        1.2652723482       -0.1162452990
 C         -2.2676936596        1.2290642065        0.0927634077
 C         -2.9978929016        2.4164303125        0.0969379119
 N         -2.9071163045        0.0263684550        0.2972205838
 C         -2.2879799867       -1.1896981210        0.1103420697
 C         -3.0377064600       -2.3645853465        0.1337868424
 C         -2.4255834981       -3.5881955227       -0.0493270982
 C         -1.0590013287       -3.6536082407       -0.2634948108
 C         -0.3116083220       -2.4888289594       -0.2853559114
 C         -0.9082986669       -1.2520738084       -0.0996666127
 C         -0.0593058993       -0.0003088723       -0.0739498747
 C          0.8160653907       -0.0011543833        1.1669770557
 C          0.4233551618        0.0087132166        2.4866789201
 C          1.4041795486        0.0041646864        3.4695114043
 C          2.7485039665       -0.0099694400        3.1302175935
 C          3.1473205914       -0.0197807997        1.8030881263
 C          2.1733864034       -0.0152507233        0.8185242915
 C          2.2776477855       -0.0224779739       -0.6326999930
 C          3.3828138121       -0.0332558709       -1.4673898394
 C          3.1783128596       -0.0360891890       -2.8381764423
 C          1.8963112775       -0.0285449586       -3.3665691939
 C          0.7846069124       -0.0179250907       -2.5343595207
 C          0.9828895094       -0.0148364060       -1.1713700249
 H         -2.9416455098        4.5397583648       -0.0965726410
 H         -0.4984929707        4.6095877290       -0.4753718976
 H          0.7985080593        2.5169652473       -0.4784138682
 H         -4.0660544838        2.3774562528        0.2608381922
 H         -3.9107430332        0.0354577134        0.3968083376
 H         -4.1046445891       -2.3052971213        0.2983233868
 H         -3.0168056171       -4.4914093409       -0.0263814208
 H         -0.5760704871       -4.6074863247       -0.4087567556
 H          0.7553297917       -2.5367305155       -0.4456867585
 H         -0.6239447903        0.0193458610        2.7514656326
 H          1.1168937466        0.0119914531        4.5106603482
 H          3.4942826923       -0.0131328083        3.9117510064
 H          4.1957821574       -0.0306230532        1.5441405891
 H          4.3832376705       -0.0390087643       -1.0605015896
 H          4.0285211654       -0.0439911921       -3.5046454910
 H          1.7611860245       -0.0301703919       -4.4381398732
 H         -0.2141723741       -0.0116628198       -2.9462223875
  43
  -65.1542057600000       0.206455600403620      !
 C         -2.3288513706        3.6277939149       -0.2234047712
 C         -0.9668298333        3.6658469545        0.0248044503
 C         -0.2563446590        2.4829862043        0.1314167185
 C         -0.8853675500        1.2554508577       -0.0026987209
 C         -2.2612569973        1.2207087997       -0.2410782116
 C         -2.9737966316        2.4140431720       -0.3506497893
 N         -2.9137377729        0.0155026019       -0.3712670312
 C         -2.2980735566       -1.1991420143       -0.1691110153
 C         -3.0533917062       -2.3710419883       -0.1708060922
 C         -2.4462157599       -3.5947213974        0.0271213145
 C         -1.0774198966       -3.6642862509        0.2264433415
 C         -0.3251342041       -2.5026045821        0.2294843444
 C         -0.9179428831       -1.2646093869        0.0372322352
 C         -0.0656424956       -0.0154940956        0.0461864043
 C          0.8800819742       -0.0274584708        1.2290999549
 C          0.5663339775       -0.0584610566        2.5698020866
 C          1.6031218998       -0.0894878698        3.4931613589
 C          2.9253741987       -0.0896857952        3.0756254679
 C          3.2458750873       -0.0566768987        1.7276017313
 C          2.2157849379       -0.0260367834        0.8023276042
 C          2.2350797416        0.0031910243       -0.6523498640
 C          3.2887451697        0.0537479689       -1.5497538192
 C          3.0035822589        0.0971709046       -2.9052726282
 C          1.6929845990        0.0855068758       -3.3578807851
 C          0.6327588672        0.0334656587       -2.4627673099
 C          0.9121152766       -0.0066394111       -1.1149351412
 H         -2.8908109617        4.5450208123       -0.3172930885
 H         -0.4583373623        4.6120204102        0.1280958426
 H          0.8077218569        2.5083076573        0.3152453574
 H         -4.0377404516        2.3764077731       -0.5396842954
 H         -3.9139515073        0.0267431913       -0.4985142613
 H         -4.1215486051       -2.3085297521       -0.3264688092
 H         -3.0427363221       -4.4947905632        0.0263273675
 H         -0.5977401142       -4.6187476670        0.3795926529
 H          0.7425349301       -2.5532116788        0.3851226341
 H         -0.4639575908       -0.0628883153        2.8950216254
 H          1.3773002624       -0.1161294019        4.5490640870
 H          3.7157788694       -0.1169250739        3.8116237338
 H          4.2773630851       -0.0587988215        1.4074478032
 H          4.3112719832        0.0671889484       -1.2022391909
 H          3.8127610319        0.1430905772       -3.6196658990
 H          1.4947407028        0.1214319213       -4.4190863826
 H         -0.3885087818        0.0293668610       -2.8153179360
