  62
       -101.90647830
 O         -0.5509061974        2.7155143055        1.0902974633
 C         -0.9491384155        1.5324896741        1.0108333402
 C         -2.1678745671        1.0644194461        1.5897725182
 C         -3.1682064729        1.9810071470        2.0195290765
 N         -4.3036884410        1.5859010722        2.5026504652
 C         -4.5484218839        0.2868246976        2.6577003169
 N         -3.6335749726       -0.6444452826        2.4104340072
 C         -2.4858410521       -0.2840203950        1.9079613922
 C         -0.1238365567        0.5595089770        0.2544254266
 C          1.2606935222        0.6392122395        0.3640282737
 C          2.0925942312       -0.2357194480       -0.3200550627
 N          3.4763009623       -0.1482790072       -0.1714599115
 C          4.3336844260       -1.2057246765        0.0633768757
 C          4.0477664699       -2.5482692285        0.2689969111
 C          5.1065332558       -3.4043380153        0.5100158365
 C          6.4183507184       -2.9413020889        0.5589784476
 C          6.7064348701       -1.5998590293        0.3852498075
 C          5.6605922899       -0.7229194307        0.1413998605
 C          5.5893856105        0.7004631398       -0.0567951482
 C          6.5458005008        1.7034019364       -0.1044551145
 C          6.1303213597        3.0014378944       -0.3388383408
 C          4.7849679818        3.2981867863       -0.5392166502
 C          3.8138028701        2.3147038717       -0.4990808169
 C          4.2228335769        1.0139910293       -0.2390508402
 C          1.5314822926       -1.2105154035       -1.1532513825
 C          0.1609153009       -1.2729338034       -1.3025523472
 C         -0.6811331194       -0.3918358760       -0.6322714662
 N         -2.0556405838       -0.4482210270       -0.8738460085
 C         -2.8683099372        0.6248946726       -1.1879661276
 C         -2.5191244026        1.9314702729       -1.4978559181
 C         -3.5427880154        2.8202277696       -1.7695422227
 C         -4.8758898104        2.4201575995       -1.7525973350
 C         -5.2247007445        1.1085555808       -1.4840731139
 C         -4.2155591341        0.1999421002       -1.2065953230
 C         -4.2059116239       -1.2057810126       -0.8964493527
 C         -5.2019806518       -2.1557185231       -0.7426502454
 C         -4.8383830472       -3.4469217277       -0.4016389313
 C         -3.5043561941       -3.7882642316       -0.2030410410
 C         -2.4933506679       -2.8560966872       -0.3460957089
 C         -2.8516968870       -1.5637890069       -0.7042341154
 H         -2.9754058570        3.0422406588        1.9328633752
 H         -5.5100115556       -0.0186026933        3.0325704444
 H         -1.7499312592       -1.0697819138        1.7807608707
 H          1.6770038531        1.3669014309        1.0436622971
 H          3.0326310913       -2.9142708928        0.2580127958
 H          4.9099965139       -4.4539841880        0.6696444357
 H          7.2184704088       -3.6408861614        0.7481611393
 H          7.7217616471       -1.2386926831        0.4433667718
 H          7.5906575059        1.4710857018        0.0346263379
 H          6.8584443516        3.7976846477       -0.3766169697
 H          4.4916283365        4.3187798165       -0.7328950583
 H          2.7767510327        2.5567791094       -0.6700337449
 H          2.1720822943       -1.8682900902       -1.7189911680
 H         -0.2728070619       -1.9756970158       -1.9987473733
 H         -1.4890724196        2.2496063513       -1.5205673094
 H         -3.3006888670        3.8466076920       -1.9991378503
 H         -5.6475286178        3.1454471942       -1.9621488741
 H         -6.2577479592        0.7963192651       -1.4880801645
 H         -6.2388270061       -1.8893173168       -0.8788492027
 H         -5.6002291003       -4.2015323168       -0.2775041647
 H         -3.2527039658       -4.8006352035        0.0751284660
 H         -1.4625472743       -3.1251274220       -0.1711010713
  62
       -101.90451446
 O         -0.5314368877        2.9162683609       -0.1783532212
 C         -0.9390050606        1.8120307267        0.2441925251
 C         -2.1654597020        1.6465656698        0.9592595954
 C         -3.1565775584        2.6685798940        0.9389640804
 N         -4.2991097989        2.5316955121        1.5318970535
 C         -4.5650581619        1.4322425384        2.2343098999
 N         -3.6597316401        0.4785655766        2.4245008841
 C         -2.5046311968        0.5727483342        1.8279295030
 C         -0.1211819088        0.6023569392       -0.0084513417
 C          1.2662759941        0.7198385911        0.0526352401
 C          2.0904389135       -0.3728608036       -0.1667182266
 N          3.4786803832       -0.2385978381       -0.0624515335
 C          4.4019774197       -0.6782151920       -0.9899691311
 C          4.1984799248       -1.2899935530       -2.2194305082
 C          5.3124167615       -1.6090449495       -2.9732786341
 C          6.5992104574       -1.3199398049       -2.5269051908
 C          6.8067532730       -0.6849979422       -1.3160446294
 C          5.7043310055       -0.3561460012       -0.5419175522
 C          5.5470550380        0.3107945741        0.7227516481
 C          6.4435236744        0.8395195779        1.6391828763
 C          5.9465512939        1.4080618598        2.7975967279
 C          4.5778255459        1.4368219305        3.0519878481
 C          3.6655125948        0.9152318942        2.1539847854
 C          4.1568616977        0.3670675149        0.9769223965
 C          1.5275596831       -1.6119032051       -0.4885969868
 C          0.1572058388       -1.7240463321       -0.6207782829
 C         -0.6782147183       -0.6351847660       -0.4002223217
 N         -2.0555852567       -0.7781682157       -0.6080271037
 C         -2.8449747119        0.0634230199       -1.3676505420
 C         -2.4682515029        1.0987664719       -2.2118205305
 C         -3.4727365750        1.7974023320       -2.8552509788
 C         -4.8139150536        1.4675049024       -2.6809278559
 C         -5.1903318687        0.4105456279       -1.8712921999
 C         -4.2009207895       -0.3034479380       -1.2137318446
 C         -4.2202231560       -1.4316667542       -0.3202995290
 C         -5.2355372252       -2.2014937634        0.2226308654
 C         -4.8988073534       -3.2190419649        1.0983142322
 C         -3.5720745201       -3.4626976033        1.4397461134
 C         -2.5420327102       -2.7055313611        0.9137650430
 C         -2.8735197285       -1.6923919871        0.0241613304
 H         -2.9468513136        3.5845010906        0.4020406292
 H         -5.5322955976        1.3301093945        2.6945066512
 H         -1.7797596289       -0.1967589789        2.0660788411
 H          1.6860032667        1.6885472441        0.2768990517
 H          3.2044786692       -1.4979063442       -2.5846685302
 H          5.1806859219       -2.0887633028       -3.9315769915
 H          7.4442719759       -1.5862784621       -3.1437512375
 H          7.8036117303       -0.4438396814       -0.9799675866
 H          7.5055478406        0.8031384276        1.4501646824
 H          6.6271621986        1.8294839178        3.5219203250
 H          4.2203589290        1.8739982917        3.9721392890
 H          2.6080682098        0.9295351620        2.3681661655
 H          2.1624467293       -2.4713978395       -0.6353400506
 H         -0.2799703015       -2.6628691179       -0.9277811945
 H         -1.4318230703        1.3577779436       -2.3589817547
 H         -3.2089319944        2.6168789171       -3.5060872364
 H         -5.5699477154        2.0420981320       -3.1943878493
 H         -6.2295780791        0.1457497643       -1.7507402765
 H         -6.2664807436       -2.0034065123       -0.0273945546
 H         -5.6760403409       -3.8293017264        1.5327373650
 H         -3.3416160200       -4.2564152997        2.1343601076
 H         -1.5169652027       -2.8895491900        1.1983410370
  62
       -101.90429676
 O         -0.5721869862        2.9147656436       -0.3237256066
 C         -0.9436975485        1.8149760365        0.1391441635
 C         -2.1195193794        1.6399619056        0.9285843937
 C         -3.1153171603        2.6577542212        0.9843759720
 N         -4.2102926382        2.5127976502        1.6580219241
 C         -4.4225077846        1.4092514880        2.3727489528
 N         -3.5039617871        0.4552615624        2.4868667136
 C         -2.3960249111        0.5567623999        1.8094957666
 C         -0.1231375024        0.6068044367       -0.1305265286
 C          1.2622191251        0.7193969516       -0.0656984096
 C          2.0822556136       -0.3821988480       -0.2632104275
 N          3.4653352306       -0.2572790478       -0.1019925819
 C          4.4357600655       -0.7186711775       -0.9688641322
 C          4.2988590135       -1.3567339720       -2.1941750514
 C          5.4519737704       -1.6987449504       -2.8759122908
 C          6.7133431937       -1.4061796025       -2.3640359312
 C          6.8557407828       -0.7446106729       -1.1582179327
 C          5.7131907074       -0.3932802501       -0.4554756558
 C          5.4908691779        0.2973660674        0.7863920032
 C          6.3388979964        0.8403585733        1.7401468757
 C          5.7829097891        1.4282143505        2.8613483387
 C          4.4029180715        1.4592584309        3.0442839310
 C          3.5385526489        0.9244310373        2.1076406108
 C          4.0896786787        0.3614254095        0.9644704624
 C          1.5146422856       -1.6156136907       -0.5956663297
 C          0.1444745464       -1.7199903804       -0.7390789529
 C         -0.6871464206       -0.6290233136       -0.5136490367
 N         -2.0691082793       -0.7682002055       -0.6891335248
 C         -2.8790986038        0.0880604238       -1.4103920650
 C         -2.5251389139        1.1205151176       -2.2677874320
 C         -3.5469077856        1.8371140024       -2.8624588617
 C         -4.8837918776        1.5267589973       -2.6291792009
 C         -5.2393497108        0.4712928089       -1.8082954750
 C         -4.2321396321       -0.2599935599       -1.1984973682
 C         -4.2288833031       -1.3906103999       -0.3079236376
 C         -5.2311713223       -2.1460002720        0.2779676310
 C         -4.8721269063       -3.1698421179        1.1372021591
 C         -3.5356339005       -3.4337372130        1.4202601152
 C         -2.5182237929       -2.6912621606        0.8505223303
 C         -2.8725641401       -1.6718676244       -0.0228364223
 H         -2.9481521794        3.5770013917        0.4383467105
 H         -5.3521955426        1.3025081566        2.9033798909
 H         -1.6561206085       -0.2153796604        1.9851868198
 H          1.6869005348        1.6864350891        0.1560951272
 H          3.3263070652       -1.5682883747       -2.6113227090
 H          5.3720774849       -2.2008411200       -3.8284686298
 H          7.5903607936       -1.6939826126       -2.9238576461
 H          7.8332606136       -0.5023015695       -0.7701593077
 H          7.4093037820        0.7998613235        1.6079741953
 H          6.4248935007        1.8613402243        3.6134543806
 H          3.9976302222        1.9082643095        3.9385408309
 H          2.4717845575        0.9393922142        2.2691593214
 H          2.1442640869       -2.4804795421       -0.7333840752
 H         -0.2958324231       -2.6566711487       -1.0479576259
 H         -1.4927538428        1.3647517501       -2.4609932110
 H         -3.3002107429        2.6553827982       -3.5214417009
 H         -5.6534001490        2.1148693818       -3.1059079682
 H         -6.2759625614        0.2210019238       -1.6424238563
 H         -6.2688716020       -1.9326778750        0.0723517597
 H         -5.6387523710       -3.7701018540        1.6032304909
 H         -3.2868905589       -4.2318412385        2.1033886754
 H         -1.4847993175       -2.8917818089        1.0900853683
  62
       -101.90419506
 O         -2.6106945779        1.0043325597        1.0068953184
 C         -1.5928732885        0.3210511509        1.2692543415
 C         -1.4097927560       -0.3067560696        2.5466020637
 C         -2.2640824053        0.0527866365        3.6256334329
 N         -2.1635941762       -0.4921064848        4.8004785718
 C         -1.2550273912       -1.4394517980        5.0104698739
 N         -0.4610414286       -1.9094195563        4.0553655388
 C         -0.5383471502       -1.3768006937        2.8630973998
 C         -0.5603927393        0.1222473660        0.2397974218
 C          0.8034017517        0.0898643537        0.5291726300
 C          1.7524380769        0.0959731383       -0.4844967341
 N          3.1125539656        0.1052512626       -0.1692391598
 C          3.7497886070       -0.7482156745        0.7109445446
 C          3.2416229151       -1.8250554156        1.4224016234
 C          4.1119437534       -2.5417451826        2.2218563022
 C          5.4609305946       -2.2075841308        2.3058211760
 C          5.9800252591       -1.1539776613        1.5765131613
 C          5.1235065473       -0.4190807662        0.7701629074
 C          5.3142733825        0.6977616492       -0.1160993986
 C          6.4180752698        1.4628360464       -0.4620818344
 C          6.2454275513        2.5101120234       -1.3480471522
 C          4.9899290673        2.8062602641       -1.8718302977
 C          3.8754495990        2.0575750841       -1.5415859304
 C          4.0481431639        0.9881669098       -0.6744697141
 C          1.3467264066        0.1368960289       -1.8239901244
 C          0.0000397739        0.1705665498       -2.1258994661
 C         -0.9585411058        0.1521289865       -1.1215948405
 N         -2.3099981786        0.1458401865       -1.4570214561
 C         -2.9389315820        1.0539299450       -2.2793944228
 C         -2.4193007655        2.1749430498       -2.9113588792
 C         -3.2814185074        2.9388394955       -3.6769384694
 C         -4.6264794464        2.6045987911       -3.8040775553
 C         -5.1540681793        1.4998353267       -3.1560052214
 C         -4.3092017921        0.7180095112       -2.3861166728
 C         -4.5019100817       -0.4624812974       -1.5825168238
 C         -5.5998755905       -1.2575794518       -1.2995643104
 C         -5.4248808438       -2.3595869920       -0.4789005291
 C         -4.1733268826       -2.6785124638        0.0384233578
 C         -3.0618209934       -1.9024050613       -0.2358067167
 C         -3.2398222495       -0.7791426782       -1.0304660875
 H         -3.0244502956        0.8052460490        3.4618110283
 H         -1.1751255391       -1.8641999321        5.9976227058
 H          0.0849066477       -1.8342689689        2.1053201820
 H          1.1373713212        0.1559755767        1.5537132854
 H          2.2032244885       -2.1066251704        1.3476247990
 H          3.7361608633       -3.3787002130        2.7905631197
 H          6.1098848934       -2.7889044752        2.9432520983
 H          7.0296927057       -0.9076997625        1.6269268143
 H          7.3883994160        1.2453850573       -0.0424321210
 H          7.0923092870        3.1165289690       -1.6318384248
 H          4.8825162756        3.6421267181       -2.5468428861
 H          2.9024255153        2.3085915002       -1.9352509266
 H          2.0853126022        0.1094601834       -2.6091183267
 H         -0.3241264675        0.1636994009       -3.1562648703
 H         -1.3818731226        2.4503040682       -2.7977747500
 H         -2.9043880619        3.8152513253       -4.1820586019
 H         -5.2690576101        3.2251363771       -4.4103831371
 H         -6.2017677160        1.2556263641       -3.2434405613
 H         -6.5701423206       -1.0216546383       -1.7094745461
 H         -6.2702279736       -2.9871457945       -0.2397437498
 H         -4.0658925250       -3.5505201240        0.6657331234
 H         -2.0917731289       -2.1642935181        0.1589100594
  62
       -101.90352734
 O         -0.6285987075        2.9308076060       -0.4623753828
 C         -0.9580462486        1.8288987996        0.0249006058
 C         -2.0852311675        1.6349956361        0.8771438762
 C         -3.0923655412        2.6370461050        0.9952504878
 N         -4.1415977326        2.4740784548        1.7337830236
 C         -4.2940738838        1.3663261364        2.4577657068
 N         -3.3582240632        0.4233520689        2.5088224148
 C         -2.2956931056        0.5423091676        1.7656216565
 C         -0.1299557051        0.6290721444       -0.2690051584
 C          1.2535740244        0.7480617808       -0.2065500601
 C          2.0774635557       -0.3569747248       -0.3745965166
 N          3.4525374285       -0.2367578728       -0.1585768775
 C          4.4612861412       -0.7693065538       -0.9374656190
 C          4.3858795743       -1.4515253881       -2.1443613917
 C          5.5688040121       -1.8706981458       -2.7245035780
 C          6.8020049253       -1.6095231486       -2.1333297985
 C          6.8862377182       -0.8990827697       -0.9502578669
 C          5.7125641671       -0.4706016323       -0.3491502336
 C          5.4346841164        0.2807652465        0.8450713826
 C          6.2401790721        0.8326437647        1.8301863542
 C          5.6369700441        1.4863584293        2.8884887830
 C          4.2503939865        1.5698767707        2.9801712028
 C          3.4283119355        1.0258079884        2.0112851694
 C          4.0284343594        0.4008177056        0.9262441105
 C          1.5128426737       -1.5912282496       -0.7099344436
 C          0.1443972878       -1.6979341922       -0.8670594604
 C         -0.6923433737       -0.6109557879       -0.6399238813
 N         -2.0769149948       -0.7599571937       -0.7794493095
 C         -2.9188028397        0.1183803542       -1.4359461658
 C         -2.6046577826        1.1558715515       -2.3029242570
 C         -3.6504498134        1.9022879384       -2.8130541676
 C         -4.9738255376        1.6150972979       -2.4900450457
 C         -5.2930104841        0.5502927168       -1.6662738281
 C         -4.2607735174       -0.2111714817       -1.1413215089
 C         -4.2188765956       -1.3568436830       -0.2711202719
 C         -5.1949592608       -2.1069342862        0.3636801941
 C         -4.8001439350       -3.1521892545        1.1803853467
 C         -3.4532138980       -3.4403843034        1.3751629801
 C         -2.4612923518       -2.7016446178        0.7572034472
 C         -2.8520773100       -1.6623298759       -0.0758651316
 H         -2.9737887052        3.5589108063        0.4411063549
 H         -5.1867052592        1.2458884116        3.0458050071
 H         -1.5376802373       -0.2224020272        1.8898971515
 H          1.6742030290        1.7198121448        0.0010547376
 H          3.4386200466       -1.6392238409       -2.6259062951
 H          5.5351994362       -2.4098797852       -3.6593942552
 H          7.7033934608       -1.9579224252       -2.6145774040
 H          7.8427565671       -0.6784748554       -0.5016299684
 H          7.3143975470        0.7478579327        1.7699136973
 H          6.2451213252        1.9292381365        3.6626470809
 H          3.8046095694        2.0683728968        3.8277123483
 H          2.3553590505        1.0792398613        2.1100332339
 H          2.1422441107       -2.4584280407       -0.8321803130
 H         -0.2903865896       -2.6360610883       -1.1789290733
 H         -1.5835029287        1.3829448737       -2.5646168914
 H         -3.4336095795        2.7269739057       -3.4744658814
 H         -5.7624499767        2.2284636990       -2.8990418323
 H         -6.3203481105        0.3170021348       -1.4320908043
 H         -6.2396647782       -1.8730172040        0.2280325425
 H         -5.5458533625       -3.7490790370        1.6831887416
 H         -3.1747337329       -4.2541496144        2.0276711031
 H         -1.4189208466       -2.9204765601        0.9326748682
