76
 energy: -120.271828339060 gnorm: 0.000061023364 xtb: 6.7.1 (edcfbbe)
C            0.85098025204762       -6.18021199997778        1.76946040182892
C            2.10185636535693       -5.62730449162147        1.45104809014551
C            2.20614455959329       -4.32585192489614        1.04044596276632
C            1.05435679221924       -3.52486896200330        0.94103145841221
C            1.02828194628817       -2.15466245590438        0.54991329733544
C            2.25675031294868       -1.37291591894503        0.35088156117529
C            2.38437924621164       -0.56879041283564       -0.77908243172852
C            3.52590535704457        0.17785760539414       -0.98416892539550
C            4.55917435415564        0.14570119103646       -0.04976194849061
N            5.72162957656840        0.89605447405579       -0.25649915206041
C            6.48871340423816        0.89566303116762       -1.40596234642266
C            6.33390634154727        0.15923672985960       -2.57145387121701
C            7.27514118873569        0.32590587351346       -3.56937162756768
C            8.35208030349960        1.19601461980225       -3.41595207553221
C            8.52396897209841        1.91383815624425       -2.24931482968438
C            7.59117521553346        1.76300511026222       -1.23185915965981
C            7.47088022037923        2.31716929755417        0.08785344359930
C            8.22492495961915        3.23124882402938        0.81175883459461
C            7.80644360311989        3.57549755406303        2.08146306301633
C            6.64403838602185        3.03257117763833        2.62418893243197
C            5.87739957384407        2.12107062988298        1.92352588159517
C            6.30682370973031        1.75227572588189        0.65690205732102
C            4.42352778496611       -0.63498874616791        1.09592690428323
C            3.28255643515148       -1.38653396075829        1.29298768669642
N           -0.10294456351019       -1.52344802035019        0.35332190375223
C           -1.26014409262199       -2.17061062490292        0.60095803737093
C           -2.49365737329015       -1.41866034137662        0.37549356854268
C           -2.44701795553457       -0.10073319814465       -0.07703072254830
C           -3.61135344647996        0.60950423379043       -0.27924179560267
C           -4.84694220563837        0.01641764666727       -0.02379671592010
N           -6.02905819112851        0.74013621623298       -0.21238667755361
C           -6.28907854647492        2.00527585048588        0.27944681649914
C           -5.50135050123037        2.82402788488133        1.07592930483266
C           -6.02142828427001        4.04578310243634        1.45837572421962
C           -7.29751175506894        4.44770738261627        1.07031119313738
C           -8.09594954309974        3.62650066719214        0.29973772287217
C           -7.59511110417341        2.39371384840592       -0.09714191016234
C           -8.14151204370443        1.30556050008237       -0.85881205482050
C           -9.35609942719060        1.10587045571073       -1.50143686901011
C           -9.55714257453291       -0.07796472967216       -2.18248204068769
C           -8.55918569069348       -1.04814469715669       -2.24140085842516
C           -7.34260896039815       -0.87219962973834       -1.61023379847052
C           -7.14464880920569        0.30413037424976       -0.90141090918131
C           -4.89703048872818       -1.30235813925101        0.42724297522090
C           -3.73180373696723       -2.01203278388646        0.62040519253934
N           -1.35472784678392       -3.39943969935219        1.05350019929783
C           -0.21828192594603       -4.09965639913982        1.21312712491174
C           -0.29110905744881       -5.43986007188000        1.64743340509371
H            0.79855335195257       -7.20810773209238        2.09764358447933
H            2.98630718088086       -6.24249258318237        1.52721067938955
H            3.16613344654601       -3.90987182045849        0.77203648110279
H            1.57609137851147       -0.54093359172451       -1.49363805199201
H            3.61874284341146        0.80582945415663       -1.85752335830030
H            5.51277525299425       -0.53107577199889       -2.69377517229919
H            7.17533131872363       -0.23432220811159       -4.48737316340831
H            9.06501813582443        1.29988757828140       -4.22026478359770
H            9.36725646889909        2.57598762645087       -2.12356503304899
H            9.11615132878788        3.66484107924626        0.38384443229255
H            8.37929392071563        4.28301572796056        2.66220371813258
H            6.33218883076268        3.33388249023402        3.61336928011949
H            4.96760181003696        1.72157210075108        2.34573884490805
H            5.22310836906136       -0.65945018018085        1.82114020541424
H            3.17636507704352       -1.97127231738112        2.19521093422553
H           -1.48541830068882        0.34901624721450       -0.26844986001712
H           -3.57612666739971        1.62307903397802       -0.65016026485265
H           -4.51908423198653        2.51455352950996        1.39937381245255
H           -5.42606341176081        4.70212076973243        2.07594548347888
H           -7.66672448460892        5.41152617415521        1.38794454410890
H           -9.09191190317620        3.92933511210949        0.01358630807310
H          -10.12229279955735        1.86580416282832       -1.46995929839679
H          -10.49562276338247       -0.25484976022279       -2.68658657290119
H           -8.73877765532711       -1.95726963186895       -2.79625525016477
H           -6.56922911430137       -1.62222754240496       -1.67864438458447
H           -5.85439073567650       -1.75290202241671        0.64282796815127
H           -3.75558068385417       -3.03011143548943        0.97544738498791
H           -1.26503569923907       -5.85206644427850        1.85880150889190
