76
 energy: -120.208296760911 gnorm: 0.000098243045 xtb: 6.7.1 (edcfbbe)
C            0.92945293905822       -6.50586411073412       -0.31736624073011
C            2.17234328163630       -5.91605925779756       -0.46555552219601
C            2.29540980118362       -4.53288409018612       -0.43845504644855
C            1.18175403668214       -3.72689833431678       -0.24756606374125
C            1.16539183912718       -2.28098996968194       -0.18557325448179
C            2.34573732053027       -1.45181382242124       -0.08306167659172
C            2.31984460445132       -0.16044586324135       -0.63505416650013
C            3.41336510711187        0.66848368689668       -0.55612255077473
C            4.56921149925671        0.24648849563611        0.10211313209189
N            5.68979264420105        1.08398764533845        0.18072952783658
C            6.98369504347393        0.72856382350916       -0.13863899289749
C            7.47261881757946       -0.47065853898145       -0.63856241501452
C            8.82685283967328       -0.55649295712840       -0.89890993017709
C            9.67969501383659        0.52274479838899       -0.67818402518490
C            9.19533784704791        1.72643518083139       -0.20341213202212
C            7.83848473212883        1.83715921641566        0.06575623454646
C            7.00704194178546        2.91011023096956        0.53676563789755
C            7.26195220405025        4.21982308870483        0.91803821378745
C            6.20781368658401        4.99881444495903        1.35491757573929
C            4.91636904997760        4.48157828773572        1.42859238967149
C            4.63744710431517        3.18091813179782        1.05475338443008
C            5.68812939567304        2.40084981901375        0.59115756520215
C            4.59178755504671       -1.01557913793815        0.69472367850420
C            3.50016360876096       -1.84997030856964        0.60490204554863
N            0.00053304693025       -1.64519912638864       -0.20862602103962
C           -1.16903494256643       -2.23941612308978       -0.16000028673701
C           -2.38786092360914       -1.46710477027618       -0.14731831675721
C           -2.34695430884505       -0.06903957669232       -0.15481371720901
C           -3.51069881776358        0.66476020089660       -0.13314925879669
C           -4.74771761676816        0.01805217419827       -0.11063100846095
N           -5.93254836561598        0.76299969197515       -0.08815573297666
C           -6.98185217942827        0.58251000942280        0.79083529354257
C           -7.10117477159625       -0.30023647374760        1.85527956152545
C           -8.26287771190395       -0.25600020444238        2.60231735296044
C           -9.28185696982330        0.64779060393478        2.31024235448654
C           -9.15778734281292        1.54623868115060        1.26829234113920
C           -8.00008206914138        1.52086428789938        0.50324650413110
C           -7.53385332242425        2.29961879481158       -0.61068502667543
C           -8.08387282216589        3.34172488117332       -1.34390028333221
C           -7.35885975589777        3.86405476699132       -2.39737570962303
C           -6.10838043390618        3.34927585109692       -2.73161002112171
C           -5.54002998058151        2.31218108182177       -2.01669370594291
C           -6.25272286616273        1.80000766415826       -0.94142059548447
C           -4.79568133919275       -1.37657424815154       -0.10735689015442
C           -3.63033184539457       -2.10858728047194       -0.12105638470354
N           -1.21812398713625       -3.57770990686895       -0.13054463459755
C           -0.11182041134707       -4.33153265684245       -0.17811909726483
C           -0.20671701500834       -5.72593193801116       -0.19118428507514
H            0.83691849948514       -7.58169619557833       -0.32293042670991
H            3.05069914661345       -6.52606550604514       -0.61232972397760
H            3.26091333132323       -4.08173896670780       -0.60622137951162
H            1.42862407126233        0.16171663611114       -1.15158602245956
H            3.39355674696067        1.64273093706610       -1.02183936180168
H            6.81586303917518       -1.30589753726040       -0.82900923988080
H            9.23269944782016       -1.47960437241280       -1.28562924501671
H           10.73274417038615        0.41510174162928       -0.89142224206321
H            9.85441552433525        2.56712159262862       -0.04758987828276
H            8.26524182396590        4.61622843354632        0.87671311172320
H            6.38455156146022        6.02122133692799        1.65396820452479
H            4.11583353467552        5.10998678787943        1.79000285896104
H            3.63738915499125        2.78252973027368        1.13351226579934
H            5.46505710492056       -1.32353059084907        1.25097858571994
H            3.51845830740608       -2.79729097525083        1.12141847870460
H           -1.38531341400913        0.42115236747103       -0.16220561445371
H           -3.47752000061281        1.74396169495960       -0.11193364963804
H           -6.30902631751953       -0.99093602703132        2.10132202716287
H           -8.38144639168286       -0.93487215265281        3.43381544654331
H          -10.17570425920035        0.64905847229890        2.91603802127146
H           -9.94032651860925        2.25797174853292        1.05276489351034
H           -9.06017924907901        3.72962589768030       -1.09541168190108
H           -7.76770542291736        4.67666392176427       -2.97915907058743
H           -5.57257206101585        3.76725820860654       -3.57099391353600
H           -4.57902898753536        1.90719897189128       -2.29521873680318
H           -5.75460335638398       -1.87312777090400       -0.11305400096778
H           -3.65459221654751       -3.18770582678685       -0.12312715166193
H           -1.18388125541066       -6.17273454656013       -0.09823937267673
