  76
       -120.27199953
 C          0.9851522474       -6.3792197722       -0.4484477516
 C          2.2211601130       -5.7287691644       -0.5911118655
 C          2.3071390683       -4.3653743602       -0.5046589834
 C          1.1527133067       -3.6000456837       -0.2607341170
 C          1.1090621465       -2.1834968799       -0.1058461699
 C          2.3178719635       -1.3563362674       -0.0142766858
 C          2.3559247957       -0.1378629234       -0.6903265007
 C          3.4761431678        0.6635961877       -0.6353226910
 C          4.5788910334        0.2718248214        0.1220284105
 N          5.7214983038        1.0755249748        0.1746221301
 C          7.0188055608        0.6477613704       -0.0363880675
 C          7.4905351941       -0.6119891598       -0.3756336913
 C          8.8513797055       -0.7630037160       -0.5628009593
 C          9.7280466137        0.3107468618       -0.4265468181
 C          9.2618104775        1.5719676700       -0.1136121192
 C          7.8981568137        1.7483562685        0.0791568334
 C          7.0837979666        2.8920575704        0.3827546318
 C          7.3695752513        4.2287490260        0.6268251596
 C          6.3270871324        5.0846902335        0.9206758941
 C          5.0160380035        4.6191419566        0.9888663970
 C          4.7068504366        3.2936619789        0.7496830756
 C          5.7473277503        2.4343415965        0.4277060257
 C          4.5303025370       -0.9260826990        0.8321470720
 C          3.4126481523       -1.7327765705        0.7612687760
 N         -0.0336340649       -1.5433005948       -0.0422431156
 C         -1.1800135579       -2.2512396050       -0.0516805988
 C         -2.4233910872       -1.4826540304       -0.0239247482
 C         -2.3950039368       -0.0998312714        0.1508986535
 C         -3.5666378347        0.6264092811        0.1624064981
 C         -4.7913230980       -0.0164121635       -0.0135799047
 N         -5.9783844686        0.7231586267       -0.0221404931
 C         -7.1231295345        0.4308273974        0.6945631748
 C         -7.3589730106       -0.5848731691        1.6098989618
 C         -8.6007836929       -0.6334017161        2.2139481377
 C         -9.5871178210        0.3078133519        1.9280148472
 C         -9.3491053111        1.3364668621        1.0389564685
 C         -8.1088447503        1.4059151419        0.4189382113
 C         -7.5242268079        2.3251187819       -0.5169029761
 C         -7.9981622118        3.4590886573       -1.1632406492
 C         -7.1637611911        4.1145461444       -2.0463004879
 C         -5.8782955160        3.6420454824       -2.3006170227
 C         -5.3845971007        2.5160936752       -1.6696832940
 C         -6.2086151156        1.8689255471       -0.7600294931
 C         -4.8232134425       -1.3998949967       -0.1868497092
 C         -3.6506754208       -2.1242948208       -0.1862209643
 N         -1.2556720950       -3.5621367389       -0.0650424813
 C         -0.1090929837       -4.2540912868       -0.1837172507
 C         -0.1623078019       -5.6617835069       -0.2585221442
 H          0.9471599507       -7.4569996898       -0.5118618357
 H          3.1086653067       -6.3155060821       -0.7772363639
 H          3.2547657248       -3.8666448158       -0.6443721850
 H          1.4982222158        0.1575969078       -1.2746902191
 H          3.5137005294        1.5889689116       -1.1900530325
 H          6.8182773263       -1.4470982920       -0.5032404790
 H          9.2431834729       -1.7348686417       -0.8246559045
 H         10.7851125456        0.1513513392       -0.5786418103
 H          9.9386544748        2.4081813112       -0.0249340029
 H          8.3879612255        4.5850175678        0.5910327617
 H          6.5269797678        6.1286065449        1.1112130716
 H          4.2231076855        5.3086704695        1.2381700009
 H          3.6897699540        2.9399934780        0.8251803974
 H          5.3664077334       -1.2088146170        1.4541329571
 H          3.3727605638       -2.6407074264        1.3451546455
 H         -1.4420633302        0.3866808367        0.2882981721
 H         -3.5466867923        1.6937040434        0.3245162814
 H         -6.5956728397       -1.3079352754        1.8542675811
 H         -8.8098751584       -1.4171732485        2.9270441721
 H        -10.5460997557        0.2333153573        2.4187579092
 H        -10.1065166467        2.0769455698        0.8300248960
 H         -9.0012217055        3.8135250820       -0.9795558375
 H         -7.5115108907        4.9998523179       -2.5576314824
 H         -5.2542953989        4.1650709351       -3.0102250729
 H         -4.3943616172        2.1472995419       -1.8902755473
 H         -5.7710099629       -1.8932319427       -0.3430874079
 H         -3.6602556377       -3.1937068586       -0.3252450092
 H         -1.1277064866       -6.1366449158       -0.1828156525
