137
 energy: -208.093483124146 gnorm: 0.000067672924 xtb: 6.7.1 (edcfbbe)
C           -9.80987177736869        5.82009134939006        2.75762255461253
C          -10.36882276267801        5.18484785128493        1.48171807780390
C          -10.07480459859020        6.13029357433370        0.30819464928620
C          -11.88623394877111        5.02367898013478        1.65164447581680
C           -9.75735151980249        3.82502671528793        1.18823419865509
C          -10.16154432688728        3.11811991510478        0.05655506394970
C           -9.63625717393997        1.88257263339459       -0.25533707708086
C           -8.67635251419054        1.29669171481882        0.56871546588376
N           -8.14515895139034        0.03866000284302        0.26324902156053
C           -6.80176263765171       -0.23712426883950        0.49509313057255
C           -6.39389498003407       -1.52404144431898        0.85736413445602
C           -5.06117389567169       -1.80813103449844        1.04997649437107
C           -4.08822855366580       -0.81815587188827        0.90379151823922
C           -2.66973909487251       -1.12454762914460        1.09373690165330
C           -1.85635547026098       -0.28353281809026        1.81745849828993
C           -0.49390320563644       -0.54846084572588        2.03479786373300
C            0.06878970708051       -1.79634504175015        1.48588941335050
C           -0.76962066112030       -2.60760359680389        0.70721892513514
C           -2.10148832931891       -2.29528054358007        0.51401652386107
C           -2.87062337864895       -3.13006331238320       -0.32172700945179
N           -3.46049765304601       -3.81934257117536       -1.02615372613662
N            1.30580131721322       -2.11198104566667        1.74417022502929
C            2.05289775917583       -1.41213896165505        2.71316743916990
C            3.52849199962918       -1.57870789233994        2.48819897839489
C            4.25758525249359       -2.55984890326532        3.14461052437485
C            5.61066988804551       -2.68273126084327        2.87724875833436
C            6.17877768403666       -1.82324871211707        1.94517149790014
P            7.97268531551842       -1.91663776406921        1.61882919497065
O            8.65219777671830       -2.92894321556402        2.43645221898685
C            8.56663467261700       -0.21974649252065        1.91063746816414
C            9.75421386755062       -0.09673157569025        2.61886436005910
C           10.27804402579867        1.15735436204111        2.87617940110268
C            9.60934396324503        2.28630090181188        2.43122898787446
C            8.42104163976318        2.16113016213015        1.72869260871337
C            7.89838053613573        0.90956247093445        1.45705149268428
C            8.13063740705324       -2.19059253539907       -0.17325818720994
C            9.21612391095014       -2.95042029617370       -0.58704974640647
C            9.42422101841531       -3.17735765373232       -1.93569153026851
C            8.54759605036667       -2.64386705107094       -2.86654455874603
C            7.46022229328265       -1.89120180700784       -2.45072196050759
C            7.24742046958993       -1.66072405635128       -1.10295111776010
N            5.48802200375704       -0.89468498376801        1.30467928245408
C            4.19601353975793       -0.76208002055006        1.56779157836839
C            3.46609442887071        0.31186845806338        0.88721065834867
N            4.00685486071605        0.84470999556822       -0.20072804585139
C            3.36495237825988        1.82667642076361       -0.81225623731652
P            4.09029950266218        2.54803426186482       -2.32715544129239
O            3.37430021535101        3.75503762256313       -2.75892876533140
C            5.84705692297484        2.83214301362764       -1.95286581290988
C            6.76641005636150        1.79624418115150       -1.87963877087912
C            8.09481508175621        2.07609968160446       -1.61833465354233
C            8.50391070760244        3.38735241025239       -1.43192612259993
C            7.58508404942025        4.42223205056246       -1.50770570584412
C            6.25486527570581        4.14584968291896       -1.76986112632534
C            4.05980491682200        1.18921692434502       -3.53938380604638
C            4.17617654356527       -0.14932280232948       -3.18984416298518
C            4.15443379953610       -1.11702399823741       -4.17907830677905
C            4.02225454075224       -0.75161722779487       -5.50957138623719
C            3.90143799644207        0.58449104130364       -5.85643325141984
C            3.91776516200780        1.55499171562865       -4.87094937311121
C            2.14877254560175        2.33167008284339       -0.36906911373826
C            1.58019590912887        1.77852833183129        0.76403534933920
C            2.24280736866598        0.74775082630549        1.41480351329602
C            1.67366532310698        0.11575603661844        2.66420795494970
N            0.27501008174519        0.24428896992394        2.72700122255575
C           -4.50209676363856        0.47379515192215        0.57617009868646
C           -5.83196692003382        0.76100955674447        0.36494028480045
C           -8.97698862378730       -0.94492780660546       -0.28849284999014
C           -8.50394149197656       -1.80973303116726       -1.27445354654237
C           -9.32971600488750       -2.77745144483784       -1.80466969424052
C          -10.65285205763195       -2.92362085791242       -1.38985561548878
C          -11.51547980507883       -4.01202452533998       -2.00625640886350
C          -11.60179327986009       -3.78583123573993       -3.52241780171236
C          -12.93945322092970       -4.02579654520371       -1.44390201102868
C          -10.87326066159539       -5.37691969375004       -1.72015748728045
C          -11.11480034792686       -2.04894192192423       -0.41272675264952
C          -10.29659390791520       -1.07830626799743        0.13340571209028
C           -8.26783917644289        1.98992465427325        1.70494295743065
C           -8.79884747294224        3.23065722175120        2.00147506521524
H          -10.01862456450329        5.20163999241245        3.62752231770778
H           -8.73654147749080        5.97681690024039        2.67945832835827
H          -10.27939492895755        6.78893073531258        2.91492655157316
H          -10.50467647281063        5.75970515508733       -0.61812335570958
H           -9.00075598957261        6.23366425303775        0.16842200893104
H          -10.49304109758301        7.11456331178761        0.50735218951640
H          -12.34781243015048        4.63578411510564        0.74788154556831
H          -12.10243788388363        4.33663627437506        2.46724402048255
H          -12.34114123805671        5.98493941251205        1.88058883051866
H          -10.89969855377990        3.53938707377862       -0.60876253557666
H           -9.96124953483290        1.36384052696774       -1.14530129562780
H           -7.13452764306674       -2.29793438945715        0.99166518385037
H           -4.77184473261158       -2.80510827667736        1.34609363478295
H           -2.25339991881942        0.62969833244677        2.23458719161286
H           -0.35123492313718       -3.50830526263120        0.28403230331799
H            1.79311170642120       -1.79493132030059        3.71593605351741
H            3.77050040944641       -3.21218484336498        3.85588725545642
H            6.23405229021760       -3.41551199666133        3.36602107903770
H           10.24750024928754       -0.99284595601813        2.96757700969185
H           11.20282126451888        1.25554769581080        3.42591558546486
H           10.01302188907840        3.26734175794145        2.63614289575862
H            7.89900689527655        3.04296079942254        1.38657775678987
H            6.97122988495361        0.80668170949740        0.91498874507944
H            9.87846057685544       -3.36397774150041        0.16005167584065
H           10.26712499677582       -3.76921140571534       -2.26153344804723
H            8.70844714218207       -2.81847388105964       -3.92053145349898
H            6.77769055668553       -1.48537405065324       -3.18431863548330
H            6.39994286494583       -1.08849257537993       -0.75655926451397
H            6.44099977267592        0.78155866709315       -2.03390847939415
H            8.81172178157906        1.26982553740663       -1.55966679479509
H            9.54289267865533        3.60230239463650       -1.22852035975966
H            7.90698457239936        5.44386014670162       -1.36577400691938
H            5.52143022219799        4.93586992223110       -1.84756416193618
H            4.26987648837276       -0.42772382387090       -2.14996603633540
H            4.23702628026683       -2.16084945956761       -3.91111802042453
H            4.00686380950122       -1.51168907810403       -6.27703952064542
H            3.79195328136331        0.86718557443248       -6.89314461032049
H            3.81143235654082        2.60278686115880       -5.11336842128721
H            1.68445577173144        3.13783012711794       -0.91577394015489
H            0.63544738771311        2.13361753660302        1.15107578042221
H            2.11860779476965        0.59888913274997        3.54566761204085
H           -3.76307412343581        1.25012961562809        0.44318353358649
H           -6.13080935331618        1.75761010736945        0.07532955137421
H           -7.48648537483126       -1.71649507251102       -1.62452051594753
H           -8.92559281453068       -3.42739385783188       -2.56529360197526
H          -12.23142632807736       -4.54679450530105       -3.97836000263838
H          -10.62128247545755       -3.83330589194822       -3.98745424729922
H          -12.03303563048343       -2.80933260003256       -3.73340274130757
H          -13.44757260001748       -3.08439186050697       -1.64012728894434
H          -13.50914879192561       -4.82026448619491       -1.92151760929909
H          -12.93615202616284       -4.21385539727440       -0.37273390909043
H          -10.79306096134852       -5.53717287341649       -0.64692706787496
H           -9.87778854319493       -5.44484653649045       -2.14957477141881
H          -11.48218436662322       -6.17290235215042       -2.14329401970250
H          -12.12720697931284       -2.11592009482760       -0.04977584386468
H          -10.67905577184472       -0.42072275127038        0.90061234235303
H           -7.53511825472255        1.54668530305252        2.36360269820317
H           -8.45295187047201        3.72561191815341        2.89394047097521
