  137
       -208.11090062
 C         -9.9229773378        5.9191478965        2.2893303176
 C        -10.3507748804        5.2196143607        0.9964452294
 C         -9.9027982100        6.0875138881       -0.1883169202
 C        -11.8810815589        5.0975204110        1.0021819554
 C         -9.7422735744        3.8345216368        0.8508555685
 C        -10.0444348823        3.0648974066       -0.2712379055
 C         -9.5073869401        1.8086068504       -0.4571578982
 C         -8.6389834857        1.2687153304        0.4883917270
 N         -8.0905146963       -0.0102937696        0.3041174316
 C         -6.7637267920       -0.2617999332        0.6035199924
 C         -6.3452796595       -1.5447964485        0.9760205482
 C         -5.0182657698       -1.8081637845        1.2222136219
 C         -4.0584458762       -0.7974803879        1.1347584624
 C         -2.6419228751       -1.0677752145        1.3657531406
 C         -1.8622706265       -0.2339101259        2.1006732228
 C         -0.4591462823       -0.4616182100        2.2681546482
 C          0.1125974084       -1.7130020893        1.7279479574
 C         -0.7217654461       -2.5284525930        0.8895329488
 C         -2.0365311743       -2.2318511804        0.7340363687
 C         -2.8093435077       -3.0377473233       -0.1365591889
 N         -3.3834793435       -3.7193712182       -0.8586285369
 N          1.2929369955       -2.1107011713        2.0286950079
 C          2.0724683520       -1.2923753946        2.9301324005
 C          3.5272084234       -1.5264119988        2.6253171821
 C          4.2393679156       -2.5652194192        3.2070171434
 C          5.5671614946       -2.7483907122        2.8601219461
 C          6.1251419705       -1.8921925996        1.9188302821
 P          7.8869973429       -2.0686820587        1.4776073389
 O          8.5626409254       -3.1394473448        2.2208961995
 C          8.5931665355       -0.4150628145        1.7702342274
 C          9.8469416934       -0.3785113411        2.3651146460
 C         10.4601908248        0.8369773588        2.6095784438
 C          9.8148050954        2.0140831009        2.2665808152
 C          8.5601850777        1.9753647413        1.6787631785
 C          7.9476195956        0.7627000101        1.4186680482
 C          7.9236439807       -2.2910594269       -0.3284833219
 C          8.9514065600       -3.0759636128       -0.8329566199
 C          9.0701827112       -3.2615000578       -2.1986702570
 C          8.1618493759       -2.6621785317       -3.0562164810
 C          7.1318998454       -1.8845704524       -2.5499979093
 C          7.0091589168       -1.6947844193       -1.1847644219
 N          5.4470578043       -0.9138727535        1.3431062877
 C          4.1805404507       -0.7227215451        1.6842928316
 C          3.4739567173        0.4028514718        1.0651904666
 N          4.0114237299        0.9550925314       -0.0165718979
 C          3.4104688872        2.0001867475       -0.5609619583
 P          4.1131790758        2.7392625871       -2.0773811413
 O          3.4572120278        4.0053921254       -2.4279080370
 C          5.9019949989        2.8963929426       -1.7945783060
 C          6.7494545169        1.7985381582       -1.7925804010
 C          8.1078163418        1.9818231515       -1.6125949441
 C          8.6180399752        3.2585618122       -1.4363170664
 C          7.7704655438        4.3552255287       -1.4391912615
 C          6.4105239295        4.1756404211       -1.6203901393
 C          3.9336687620        1.4397165650       -3.3417439709
 C          3.9579409866        0.0817383391       -3.0549978041
 C          3.8183431588       -0.8352287828       -4.0824366195
 C          3.6614093963       -0.4005607450       -5.3891559874
 C          3.6348025901        0.9553394045       -5.6736721042
 C          3.7680254897        1.8752353761       -4.6494188119
 C          2.2473225303        2.5605821884       -0.0479374205
 C          1.6755412877        1.9813528788        1.0703273845
 C          2.2872236197        0.8735958977        1.6416683341
 C          1.7003967146        0.1990420998        2.8647366653
 N          0.2730181714        0.4153911407        2.8579929101
 C         -4.4835075160        0.4922675359        0.8084844585
 C         -5.8047321878        0.7560468902        0.5344663137
 C         -8.9067629430       -1.0207547080       -0.2305183782
 C         -8.4132043326       -1.9186062772       -1.1744748799
 C         -9.2284898056       -2.9051368722       -1.6873117962
 C        -10.5600999806       -3.0355368670       -1.2963177839
 C        -11.4103995720       -4.1454803345       -1.8919454811
 C        -11.4722818218       -3.9664464791       -3.4155348869
 C        -12.8432051150       -4.1452590157       -1.3523374513
 C        -10.7712593520       -5.4996610876       -1.5531443890
 C        -11.0434023673       -2.1239462374       -0.3648876130
 C        -10.2354686985       -1.1345200985        0.1636834419
 C         -8.3392703850        2.0201885958        1.6199518602
 C         -8.8804183748        3.2806445226        1.7905307085
 H        -10.2374855090        5.3535380313        3.1633960261
 H         -8.8447805794        6.0576477974        2.3217650515
 H        -10.3884448555        6.9013124047        2.3401329391
 H        -10.2322670956        5.6676308593       -1.1346585944
 H         -8.8176270769        6.1647117902       -0.2088728272
 H        -10.3182587393        7.0887646811       -0.0967183387
 H        -12.2487922670        4.6665045033        0.0752340030
 H        -12.2047139957        4.4638488947        1.8254142198
 H        -12.3338232948        6.0791809775        1.1237124274
 H        -10.7080357134        3.4517357261       -1.0294890195
 H         -9.7529546599        1.2379124605       -1.3408404260
 H         -7.0754811501       -2.3336729959        1.0733288790
 H         -4.7273016712       -2.8028652562        1.5257243705
 H         -2.2740238716        0.6503891630        2.5620398311
 H         -0.2716603160       -3.3892994799        0.4181851234
 H          1.8602371916       -1.6754472431        3.9420273910
 H          3.7586629097       -3.2144900925        3.9251800133
 H          6.1783399771       -3.5257759317        3.2921273448
 H         10.3226848045       -1.3107227596        2.6345963183
 H         11.4380726113        0.8676452352        3.0677807281
 H         10.2889468483        2.9651455640        2.4617929304
 H          8.0561807986        2.8946689297        1.4179178897
 H          6.9694891409        0.7263880129        0.9644813761
 H          9.6409723661       -3.5396937204       -0.1420377364
 H          9.8683248774       -3.8722294810       -2.5949930197
 H          8.2527910414       -2.8045999057       -4.1233498745
 H          6.4220309000       -1.4294231389       -3.2264450161
 H          6.2023975347       -1.1113879152       -0.7669914427
 H          6.3444266368        0.8115346289       -1.9362737684
 H          8.7685070646        1.1269347703       -1.6071408973
 H          9.6797611723        3.3982031070       -1.2941885268
 H          8.1707538596        5.3495911126       -1.3031964116
 H          5.7301578319        5.0152176768       -1.6399032971
 H          4.0737841035       -0.2506054005       -2.0332922660
 H          3.8266501066       -1.8935594740       -3.8627926885
 H          3.5512426399       -1.1213023406       -6.1863852841
 H          3.5054852299        1.2929205179       -6.6915980186
 H          3.7349961342        2.9381490845       -4.8420904199
 H          1.8209035228        3.4245753727       -0.5338210225
 H          0.7659006582        2.3707997135        1.5034122311
 H          2.0966441079        0.7120736346        3.7534565545
 H         -3.7529762915        1.2829660795        0.7210344434
 H         -6.1050433962        1.7501805594        0.2394688065
 H         -7.3885006344       -1.8375225098       -1.5064587268
 H         -8.8089301065       -3.5816792128       -2.4158390219
 H        -12.0903786509       -4.7443136469       -3.8586454328
 H        -10.4835970729       -4.0225984590       -3.8620859581
 H        -11.9045446340       -2.9991158458       -3.6633730931
 H        -13.3513089382       -3.2133648188       -1.5894886470
 H        -13.4025044657       -4.9581775967       -1.8108879189
 H        -12.8562204014       -4.2955017509       -0.2752642587
 H        -10.7067387524       -5.6255903325       -0.4742302157
 H         -9.7695849026       -5.5801542637       -1.9657194658
 H        -11.3731775327       -6.3096082544       -1.9596034174
 H        -12.0643617625       -2.1755123577       -0.0241448831
 H        -10.6342539007       -0.4454323469        0.8940659324
 H         -7.6796197828        1.6107567980        2.3714097218
 H         -8.6167286526        3.8252282365        2.6821827456
