137
 energy: -208.111225722607 gnorm: 0.000062462728 xtb: 6.7.1 (edcfbbe)
C           -9.97378850122665        5.80362255362859        2.60350284952844
C          -10.44056437593965        5.15271542149731        1.29874475255504
C          -10.04794762617040        6.07579057444628        0.13623611216712
C          -11.96794409579714        5.00873753428831        1.35518212003831
C           -9.82012041148195        3.78386135544366        1.07243300031942
C          -10.14968216133256        3.05976998155535       -0.07204578934623
C           -9.60380059747082        1.82022367219736       -0.33042912423233
C           -8.69892262791691        1.25083694138830        0.56224340634609
N           -8.14208910543754       -0.01183114938504        0.30535752666496
C           -6.80525304278048       -0.26054709471877        0.56045684087215
C           -6.36485213225346       -1.55123712847444        0.87615604527099
C           -5.02999145095939       -1.80772428323133        1.08490828991701
C           -4.08276836554836       -0.78392290915866        1.01246361077945
C           -2.66046003909740       -1.04474891211684        1.21662538858641
C           -1.88018943739462       -0.21772881698083        1.95882198272033
C           -0.47575852144788       -0.44298846886555        2.11738412462080
C            0.09676506728198       -1.68883475102625        1.56492642611332
C           -0.73452004712069       -2.48808967985011        0.70799630904238
C           -2.05034748508491       -2.19253588834541        0.55920170957931
C           -2.82143536217620       -2.98615680424013       -0.32407885196788
N           -3.39963363246841       -3.63746429102952       -1.06999555522562
N            1.27453799562153       -2.09278856335466        1.86818623206043
C            2.04123354238278       -1.28840034218969        2.79344426715975
C            3.50296696548392       -1.52613031817638        2.53017832035494
C            4.20149469849379       -2.55593756962971        3.14319425614883
C            5.54201219575846       -2.73133690093606        2.84422050483010
C            6.12639641035029       -1.87705690030685        1.91753268994450
P            7.90706983321126       -2.03515083965191        1.55042264766636
O            8.56413073789713       -3.09273377830416        2.32851917895474
C            8.57703446538151       -0.37061368147051        1.86454709292342
C            9.79119689788319       -0.31113982922834        2.53480244882555
C           10.37353307440697        0.91493508356619        2.80117849577017
C            9.73687281764301        2.07949313391355        2.40346369811385
C            8.52184043591944        2.01783501537338        1.73930921397403
C            7.94050945578892        0.79449955214222        1.45849697520169
C            8.02447824052711       -2.26671098117436       -0.25106313049949
C            9.08808747877072       -3.03433050306753       -0.70540262715469
C            9.26897997570511       -3.22650820482939       -2.06330750386096
C            8.38724072125130       -2.65018460727442       -2.96331046685616
C            7.32145168394971       -1.89007432744786       -2.50733277254144
C            7.13591922195812       -1.69463689441791       -1.14997821176922
N            5.46158134256170       -0.90859989997966        1.31008577244297
C            4.18279842956073       -0.72450557107925        1.60592899235065
C            3.48810447661549        0.39122479013546        0.95582573582989
N            4.04733541048274        0.93039858192545       -0.12112033052858
C            3.45202630630923        1.96247296602002       -0.69608382980766
P            4.18719004808341        2.68370942091884       -2.20588155259795
O            3.52155417847761        3.93186051576919       -2.60021466813570
C            5.96274140815399        2.87716104661432       -1.86573862605303
C            6.82935851970010        1.79553571955263       -1.81427519172896
C            8.17569245109208        2.00686603263988       -1.58216411573471
C            8.65488632822115        3.29511640338583       -1.40245007838004
C            7.78840591380673        4.37554082829634       -1.45551015773857
C            6.44049881327970        4.16792806112109       -1.68912453571047
C            4.06945968764240        1.35635801950270       -3.44816609341065
C            4.12011678024669        0.00577242266939       -3.13116756024354
C            4.03078004318424       -0.93623798202478       -4.14125752179807
C            3.89696447902250       -0.53359318995033       -5.46076293261187
C            3.84205749650691        0.81479324316697       -5.77531972576855
C            3.92566449270911        1.75972320689424       -4.76865229810350
C            2.27260131318273        2.52144321347858       -0.22039866668070
C            1.67983362081820        1.95759206139275        0.89499634993931
C            2.28652737708968        0.86482245284588        1.49887442204777
C            1.68302006165189        0.20585917318778        2.72210639187670
N            0.25758464235760        0.43099545419278        2.71040494553305
C           -4.52858422614588        0.51104111761285        0.73767753306951
C           -5.85841141549808        0.76932713477243        0.50331438592785
C           -8.96135985953141       -1.00818494899176       -0.25040559461098
C           -8.48216879773664       -1.86112298408010       -1.24217426297809
C           -9.30127819510780       -2.83181264402440       -1.77871053249180
C          -10.62294575008230       -2.98978105207474       -1.36498874154231
C          -11.47915931775381       -4.07804938387149       -1.99133093081875
C          -11.57351413244437       -3.83287127829017       -3.50401156812091
C          -12.90056187293237       -4.11053780441227       -1.42332866514151
C          -10.82564898429601       -5.44162828144029       -1.72555266500872
C          -11.09139782969719       -2.12447491990565       -0.38312658106599
C          -10.27929674812325       -1.15186948775141        0.16959387433101
C           -8.37146990428554        1.95638939186904        1.71553310124437
C           -8.92138259881919        3.20106622022008        1.95849934981167
H          -10.25051966074291        5.19899751713166        3.46412417773009
H           -8.89665649742179        5.95357737719869        2.60319869919621
H          -10.44743404909944        6.77717917977021        2.71163916995430
H          -10.41015498745532        5.69351161381367       -0.81400206025433
H           -8.96527904328901        6.16623153245084        0.07693246305374
H          -10.46912059215747        7.06736841791981        0.28708035213150
H          -12.36394788728714        4.61006516303381        0.42541050198913
H          -12.25287863751912        4.33783170485129        2.16304333901390
H          -12.42854892804126        5.97807112201852        1.53306780193316
H          -10.84264233895319        3.47015359563132       -0.79061912213793
H           -9.87098855727167        1.28586570395867       -1.23039776091395
H           -7.08433433035498       -2.35129368917464        0.96147801272037
H           -4.72263695121756       -2.80886792051727        1.34835243255954
H           -2.29325752097285        0.65602895491424        2.43867795815415
H           -0.28308729893132       -3.33944736835972        0.22096493950035
H            1.79911902963850       -1.67191366861140        3.79855296983785
H            3.70102119205688       -3.20334613395623        3.84946317102387
H            6.14333494947928       -3.50101904668074        3.30301762447017
H           10.25897085568418       -1.23389204306329        2.84740734305546
H           11.31925905659489        0.96372911851812        3.32116543909782
H           10.18670952124864        3.03875314869850        2.61539673500507
H            8.02497243053772        2.92736700172680        1.43417644882962
H            6.99274498740190        0.74032661894707        0.94562745878794
H            9.75522843752483       -3.48117451704939        0.01790497195946
H           10.09506777781234       -3.82400692874498       -2.42054201688688
H            8.52740272468843       -2.79665107198185       -4.02455771772172
H            6.63500033763614       -1.44979125490414       -3.21701678189958
H            6.30613008479290       -1.11624485609150       -0.77221465532876
H            6.44908873685798        0.79913970526747       -1.96142736272637
H            8.85171319295910        1.16497315509900       -1.54094339985818
H            9.70765057787999        3.45648514253172       -1.22160416300897
H            8.16481077555944        5.37904653328759       -1.31836584208006
H            5.74635362934395        4.99419734125510       -1.74872491647833
H            4.21645802354366       -0.30100478903038       -2.09954890388354
H            4.06233672290016       -1.98900853685855       -3.89825330056203
H            3.82910857038836       -1.27372975044773       -6.24475740232116
H            3.73144227649747        1.12699536429324       -6.80344589844818
H            3.87113696321142        2.81702285436178       -4.98563341541128
H            1.85066344865641        3.37307754414926       -0.73134414723416
H            0.75836902258067        2.34835808293260        1.30116318602519
H            2.08033924282088        0.71847738817720        3.61058832357087
H           -3.80878273940235        1.31250545432638        0.66030899985330
H           -6.17618777776250        1.76962576097747        0.25027567133774
H           -7.46584478492646       -1.75713589018754       -1.59297394904673
H           -8.89295470453055       -3.47330342355512       -2.54440537065029
H          -12.19795016131590       -4.59335947778316       -3.96785943243495
H          -10.59425290138492       -3.86496924543940       -3.97310665773367
H          -12.01433536644811       -2.85759153251509       -3.70030532830496
H          -13.41831534004423       -3.17218643343362       -1.60851845002889
H          -13.46488309824346       -4.90573626807443       -1.90612558390807
H          -12.89082445315206       -4.30847199206567       -0.35396802064607
H          -10.73843856437870       -5.61444999746060       -0.65480488891814
H           -9.83217641240454       -5.49735614589767       -2.16136551890329
H          -11.43117004150466       -6.23679240441699       -2.15510171159894
H          -12.10419381651163       -2.19881129084094       -0.02278894790899
H          -10.66735592128459       -0.49750285184651        0.93677312523840
H           -7.68383893247438        1.52302325610280        2.42745006143565
H           -8.63699934003875        3.70856530868657        2.86553734287457
