76
 energy: -110.103078740064 gnorm: 0.000028593356 xtb: 6.7.1 (edcfbbe)
C            4.75341953753442        4.09882228448627       -0.96444034235600
C            3.63111504919015        3.97015976790115       -0.16340526910016
C            3.11505619400167        2.71762514295326        0.11593351997883
C            3.70941148751108        1.57403699894599       -0.40680766698880
C            3.17084355523574        0.20294162672643       -0.04242011770590
C            1.65626203818886        0.17000786249250        0.01193861494371
C            0.90836938492730        0.85520398969066       -0.94026608493758
C           -0.47077740649719        0.78349118665711       -0.93483851340664
C           -1.15306262164287        0.02659221560521        0.01436504756532
Si          -3.04720144945561       -0.03207771356930        0.01268806838889
C           -3.65483847707922       -1.49193408768596        1.06055757559446
C           -4.04492001826710       -2.69477184676274        0.47993892815632
C           -4.47621989839507       -3.75634423932259        1.25608977971370
C           -4.52548208257924       -3.63250851003770        2.63468820504827
C           -4.14158678420177       -2.44192108610174        3.23020380578701
C           -3.71151258486430       -1.38517666178463        2.44801837329365
C           -3.63480987086096       -0.22974407846255       -1.78068913610108
C           -4.77575403550615        0.41324855841268       -2.25075026981455
C           -5.20616001021936        0.24355525402262       -3.55505526420787
C           -4.49841139519129       -0.57724644543187       -4.41745949948531
C           -3.35789720240164       -1.22262628927985       -3.96797360465545
C           -2.93336917371628       -1.04793734568362       -2.66302022403979
C           -3.74901437392458        1.56640996528973        0.75613624624387
C           -2.97661044413706        2.71759063345468        0.87584588219458
C           -3.50570337454755        3.88220545732982        1.40403633035320
C           -4.82509347642103        3.91651722973761        1.82376104338212
C           -5.60828318434668        2.77871654154590        1.71612202480056
C           -5.07203167418787        1.61783196510859        1.18848806501241
C           -0.39592853612141       -0.66596266476126        0.95249643083893
C            0.98581981057575       -0.60271017785541        0.95114426194789
C            3.83912273699502       -0.22177447915138        1.25219250970653
C            3.80677660118468        0.39845839290162        2.48330042520227
C            4.51822072302300       -0.16591040643791        3.53399840344566
C            5.25419673011892       -1.32709325266463        3.35130628431406
C            5.29691647192838       -1.95110800995286        2.11475132573036
C            4.58681311214923       -1.39316162563380        1.06390426302101
C            4.44335850857794       -1.81722008862857       -0.31967475196307
C            4.96549940230871       -2.91017581273030       -0.99244249512042
C            4.65550683141425       -3.07559805423601       -2.33290864982851
C            3.83610200222530       -2.16847430800212       -2.98794079021201
C            3.31109167854116       -1.07091812381262       -2.31832938440724
C            3.62350278624863       -0.89553588974774       -0.98678910466073
C            4.84344145343172        1.71086175708817       -1.19700358423882
C            5.35860892164412        2.96477436644352       -1.47759592913674
H            5.15541481496931        5.07711687183091       -1.18440921187198
H            3.15489355263418        4.84936232480931        0.24659725463095
H            2.23539584573994        2.62772478395659        0.73710138707593
H            1.41051982944639        1.45791309668217       -1.68410129907471
H           -1.03244863987954        1.32182390740770       -1.68569142981449
H           -4.01366332681076       -2.79717516146810       -0.59557913285775
H           -4.77673734724413       -4.68244661156734        0.78593053547760
H           -4.86356845377950       -4.45940649431182        3.24309625825729
H           -4.17928193931078       -2.33859681845239        4.30585787852901
H           -3.41770836005792       -0.45675236803227        2.91809285537289
H           -5.33036967392835        1.05961308685549       -1.58550159894644
H           -6.09511983788706        0.75225471007244       -3.90131673164408
H           -4.83277704830553       -0.71184546341171       -5.43646628011086
H           -2.79942801460691       -1.86253368747946       -4.63716831655766
H           -2.03928954142615       -1.55013014197519       -2.31983493245396
H           -1.94505060975818        2.69701858578731        0.55444411445630
H           -2.88885131824883        4.76607451477099        1.48937388561597
H           -5.24088688097639        4.82505574508493        2.23590606253440
H           -6.63823382192795        2.79818354566351        2.04459792785256
H           -5.68643129987919        0.73100691703927        1.11458994320723
H           -0.89660587182609       -1.27123980553941        1.69472018023056
H            1.54753872080478       -1.15780058335817        1.68904706604167
H            3.23650313103131        1.30308804447917        2.63385324570875
H            4.49808665328927        0.30669456627187        4.50541479817433
H            5.80138496571539       -1.74840886949522        4.18244910327844
H            5.87295673979055       -2.85384495200284        1.97417972658127
H            5.60082075465673       -3.61992947449133       -0.48345035802381
H            5.05460817159476       -3.92151788180890       -2.87412062407524
H            3.60312183461824       -2.31638318941923       -4.03257393423742
H            2.67416214521542       -0.36912409742129       -2.83592254709879
H            5.32733860775897        0.83242742400823       -1.59881183357041
H            6.23821292660665        3.05375488069417       -2.09902134944718
