76
 energy: -110.103002950402 gnorm: 0.000097205806 xtb: 6.7.1 (edcfbbe)
C            4.84621347034750        4.01545145988363       -0.85389741253322
C            3.71846706802225        3.89353286955681       -0.05951307363216
C            3.17552631420756        2.64647958377614        0.19195761371308
C            3.74842959806925        1.50184211335374       -0.35196167649198
C            3.18202663504005        0.13467951529384       -0.01654238995772
C            1.66686122876766        0.12990998928742        0.03729715854426
C            0.93212500723728        0.85078440586827       -0.89864905688188
C           -0.44823588858323        0.80586900128665       -0.89398976587857
C           -1.14493674856329        0.03860504245680        0.03618548147003
Si          -3.03923180311249       -0.01838932663621        0.00765152918398
C           -3.68252262411819        1.73561447701367       -0.32498105963290
C           -4.78112037193853        1.96649732127934       -1.14706527756499
C           -5.25208294502907        3.24889370110612       -1.36838492012618
C           -4.62885839528924        4.32972851157750       -0.76701795406933
C           -3.53181171019176        4.11946032100411        0.05250918122306
C           -3.06638799959223        2.83482294828189        0.26842688207016
C           -3.69783411880582       -0.64377341841264        1.67310954026999
C           -3.68734419795171       -2.00522486960737        1.96658979039152
C           -4.14634594128949       -2.47863089880319        3.18267518857467
C           -4.62913410407718       -1.59322858941360        4.13267454787739
C           -4.65142993698371       -0.23627969223942        3.85618292347736
C           -4.18962875440204        0.23011162263607        2.63774036027762
C           -3.63157218650801       -1.19917204698627       -1.35384268234012
C           -4.93619103282876       -1.68668058324035       -1.34336108976514
C           -5.39155925151559       -2.53458300008409       -2.33695683478269
C           -4.54390090476897       -2.91424297359403       -3.36498021479044
C           -3.24162367527738       -2.44340258532239       -3.38858531204961
C           -2.79340196048072       -1.59447872483189       -2.39177967916008
C           -0.40119846894463       -0.68511185091192        0.96143976222465
C            0.98144092857700       -0.64705148807383        0.96213311320778
C            3.84022763436187       -0.33167272138312        1.26895908958387
C            3.82280339432418        0.26424897765572        2.51233775793316
C            4.51935959309181       -0.33880874371344        3.55148245014623
C            5.22514647624394       -1.51479598821766        3.34575977114562
C            5.25350989419233       -2.11424978189670        2.09671433050956
C            4.55894909174910       -1.51710440107200        1.05707901823086
C            4.40815838973918       -1.90801657933806       -0.33543633705904
C            4.90646504320040       -2.99781435891915       -1.03104444850440
C            4.59683972902710       -3.12610999965694       -2.37565106208501
C            3.80102409451591       -2.18565820967203       -3.01247425081114
C            3.29981209030676       -1.09127845434670       -2.31983503594124
C            3.61194930577848       -0.95293679597655       -0.98389560949275
C            4.88756933637265        1.63155527217848       -1.13603337627044
C            5.42942796740670        2.88006187623330       -1.38905350957610
H            5.26929936830368        4.98954789397780       -1.05186535036201
H            3.25875454186233        4.77374412369038        0.36683420743066
H            2.29144088556831        2.56199499083482        0.80753354007104
H            1.44574981720976        1.46142660020745       -1.62803666966612
H           -0.99975315575282        1.38177434113353       -1.62421297487105
H           -5.26975254373226        1.12872406147590       -1.62376178943527
H           -6.10675308397573        3.40718186591486       -2.01133322140703
H           -4.99481444501273        5.33226207072035       -0.93798027838415
H           -3.03936455432685        4.95951256831663        0.52255095749857
H           -2.20650960287047        2.67738294017290        0.90472437607911
H           -3.31744006782921       -2.70175821462060        1.22673846872377
H           -4.12963260164545       -3.53944115401159        3.39135534314227
H           -4.98935900364001       -1.96020845787195        5.08332734289623
H           -5.03069175634723        0.45867819314870        4.59252472263675
H           -4.21402465387313        1.28994797761119        2.42727909284059
H           -5.60058809765287       -1.39989632448531       -0.53983955713497
H           -6.40816596150399       -2.90186492865338       -2.31074082198089
H           -4.89662372766332       -3.57669606503802       -4.14282025477182
H           -2.57451688404145       -2.73990407779562       -4.18606051197717
H           -1.77427198953959       -1.23539489839709       -2.41400786142261
H           -0.91341410978679       -1.28753989304963        1.69796352145216
H            1.53199640333452       -1.22435058587824        1.69134423632664
H            3.27553683948476        1.17975901638131        2.68129993777110
H            4.51075589526657        0.11470231119464        4.53212049715910
H            5.76028563811436       -1.96683500675699        4.16859590064724
H            5.80666752614676       -3.02821520553728        1.93806687034357
H            5.52328964306548       -3.73358421288430       -0.53640178748787
H            4.97774993326633       -3.96885445780683       -2.93465328217600
H            3.56841296338776       -2.30463808290378       -4.06086692813573
H            2.68235971273647       -0.36233911439466       -2.82336737222493
H            5.35466541318014        0.75171759051651       -1.55433048212309
H            6.31273238793524        2.96371320740295       -2.00595733212303
