  76
       -109.94605420
 C          4.8208384425        4.1249513051       -0.8216682994
 C          3.6676629547        3.9983770879       -0.0648509028
 C          3.1221817185        2.7495610047        0.1684690622
 C          3.7188229230        1.6095946296       -0.3587404473
 C          3.1629816490        0.2357765710       -0.0435395766
 C          1.6499742740        0.2042646020        0.0112360487
 C          0.8969967141        0.9164175038       -0.9171717522
 C         -0.4805214992        0.8345343530       -0.9101334128
 C         -1.1533095720        0.0424744711        0.0176270870
 Si        -3.0442750329       -0.0293371153        0.0190499387
 C         -3.6379501990       -1.5269982200        1.0156440422
 C         -4.0742510233       -2.6896568792        0.3898180535
 C         -4.4899959201       -3.7839320166        1.1273682931
 C         -4.4744978305       -3.7332746721        2.5110059057
 C         -4.0451498773       -2.5821357577        3.1507817998
 C         -3.6329112840       -1.4915037274        2.4072728929
 C         -3.6411132600       -0.1685474443       -1.7743194875
 C         -4.7885364787        0.4843064011       -2.2119152219
 C         -5.2271013818        0.3581894224       -3.5179292211
 C         -4.5209255238       -0.4278869497       -4.4128373545
 C         -3.3741624033       -1.0826592028       -3.9946915442
 C         -2.9411844902       -0.9517720015       -2.6878692176
 C         -3.7542143515        1.5403153400        0.8106952443
 C         -3.0033304094        2.7061769037        0.9159203466
 C         -3.5411038893        3.8536028216        1.4710895298
 C         -4.8466981153        3.8540285877        1.9321599698
 C         -5.6074246799        2.7002256692        1.8395469539
 C         -5.0629401729        1.5564081389        1.2849125273
 C         -0.3912485798       -0.6759330148        0.9320200304
 C          0.9890887498       -0.6061481989        0.9255370753
 C          3.8270234915       -0.2390880883        1.2331160588
 C          3.8281475341        0.3320425280        2.4664914582
 C          4.5363099801       -0.2891897359        3.5123375163
 C          5.2521186139       -1.4870874124        3.2857981395
 C          5.2805818581       -2.0802841484        2.0615422046
 C          4.5617889703       -1.4714621802        0.9784450045
 C          4.4084578737       -1.8319172519       -0.3424363695
 C          4.9029997171       -2.9495427878       -1.0953438407
 C          4.5999846424       -3.0373326350       -2.4185666509
 C          3.8080733213       -2.0588180096       -3.0640196436
 C          3.3007737139       -0.9594985445       -2.3474356777
 C          3.5919864973       -0.8352062597       -1.0252254809
 C          4.8844530501        1.7428083143       -1.1023004028
 C          5.4280410266        2.9930679242       -1.3376729010
 H          5.2462673178        5.1004853788       -1.0043447450
 H          3.1907632912        4.8770419145        0.3449368586
 H          2.2197638551        2.6569845881        0.7549220856
 H          1.3958750065        1.5460555691       -1.6396790414
 H         -1.0512318759        1.3906733030       -1.6408483688
 H         -4.0909265438       -2.7330994994       -0.6898127967
 H         -4.8277016909       -4.6781089185        0.6230978078
 H         -4.7979275471       -4.5864445679        3.0893517639
 H         -4.0331291349       -2.5362592659        4.2305264313
 H         -3.3052561329       -0.5924809228        2.9105693339
 H         -5.3402113165        1.1027785536       -1.5185990746
 H         -6.1203647812        0.8740431662       -3.8400059359
 H         -4.8612907946       -0.5288600196       -5.4331207808
 H         -2.8177896104       -1.6954001026       -4.6897721985
 H         -2.0423621541       -1.4596573956       -2.3669157834
 H         -1.9830556038        2.7098693310        0.5605481111
 H         -2.9419060524        4.7500410518        1.5448493907
 H         -5.2695600605        4.7490647800        2.3646810643
 H         -6.6258831997        2.6940471059        2.2009632148
 H         -5.6577091556        0.6558334770        1.2213285215
 H         -0.8888119794       -1.3071973577        1.6539283704
 H          1.5615520951       -1.1825064980        1.6379734509
 H          3.2884029644        1.2482702702        2.6562589148
 H          4.5343019498        0.1515844559        4.4961470487
 H          5.7884400010       -1.9288279405        4.1134162366
 H          5.8346562160       -2.9889810327        1.8851917625
 H          5.4993633314       -3.6998272278       -0.5996825780
 H          4.9632010957       -3.8703496646       -3.0032209595
 H          3.5914247156       -2.1585667338       -4.1154201744
 H          2.6946825153       -0.2247615048       -2.8567364604
 H          5.3661600063        0.8615933162       -1.5003872451
 H          6.3314660553        3.0831401466       -1.9229561993
