  92
  -158.259156330000       0.253971593737825      !
 C         -6.3288470803       -2.8348708242        2.8276214491
 C         -5.1264927454       -2.1600558580        2.8833794811
 C         -4.1434277344       -2.3975759345        1.9353176012
 C         -4.3501571468       -3.3047479061        0.9026729861
 C         -5.5559457155       -4.0190661004        0.8846556302
 C         -6.5348399439       -3.7762971426        1.8309831664
 O         -5.8209826226       -4.9966596897       -0.0399264271
 C         -4.8716895817       -5.2335806106       -1.0012776017
 C         -5.1676950131       -6.1982518288       -1.9467723071
 C         -4.2776349480       -6.4669876676       -2.9753387506
 C         -3.1041408204       -5.7457794576       -3.0632052413
 C         -2.8017481963       -4.7795658278       -2.1160482740
 C         -3.6623791348       -4.5280623672       -1.0545480898
 N         -3.3856732239       -3.5643733595       -0.0785674479
 C         -2.1690704899       -2.8591828471       -0.0913128947
 C         -0.9519944897       -3.5444116529       -0.0122961387
 C          0.2226923866       -2.8346825593       -0.0060870927
 C          0.2223731926       -1.4362507337       -0.0540140438
 C         -0.9967802808       -0.7329593812       -0.1259798402
 C         -2.1778383092       -1.4750219793       -0.1631094709
 C         -0.9966155046        0.7231757368       -0.1222112950
 C         -2.1762617577        1.4668503825       -0.1720196274
 C         -2.1665085591        2.8505243951       -0.0918512532
 N         -3.3814522048        3.5588621041       -0.0999777168
 C         -4.3610632377        3.3100532460        0.8687991106
 C         -4.1833019139        2.3915326702        1.8966282139
 C         -5.1799211779        2.1686207947        2.8341891570
 C         -6.3664801314        2.8701531723        2.7730572797
 C         -6.5445673642        3.8202231816        1.7792011422
 C         -5.5532834752        4.0466975176        0.8419303477
 O         -5.7929681774        5.0305638559       -0.0832029428
 C         -4.8327051882        5.2502406723       -1.0377197214
 C         -5.1065402099        6.2155380892       -1.9892939772
 C         -4.2024661751        6.4692119751       -3.0095337553
 C         -3.0366997217        5.7336069397       -3.0822588439
 C         -2.7570200420        4.7660984825       -2.1294897728
 C         -3.6330272054        4.5276976392       -1.0775365692
 C         -0.9503550533        3.5337990355        0.0121438826
 C          0.2234319720        2.8228285242        0.0287737584
 C          0.2221440334        1.4249917145       -0.0323511647
 C          1.4748670721        0.7093395620        0.0046690500
 N          2.6020089325        1.3948141671        0.0522565761
 C          3.7524020800        0.7073140152        0.0814441813
 C          4.9802538029        1.3949485914        0.1220861396
 C          6.1684955007        0.7081925855        0.1421121309
 C          7.4326235231        1.4496762282        0.1133322504
 C          8.4516123801        1.1690510163       -0.8010674801
 N          9.5882956950        1.8376825142       -0.8210897660
 C          9.7273951710        2.8113379826        0.0609957850
 N          8.8260744333        3.1919311100        0.9475224847
 C          7.6918057824        2.5172394359        0.9749796131
 C          6.1687857547       -0.7177145741        0.1454157583
 C          7.4295400207       -1.4581720641        0.2489349143
 C          8.3946787713       -1.1747634882        1.2189916244
 N          9.5292554682       -1.8420609778        1.3044898681
 C          9.7188959245       -2.8174212406        0.4341299522
 N          8.8691743409       -3.2013264465       -0.5008395059
 C          7.7380545449       -2.5275167885       -0.5942201188
 C          4.9819286417       -1.4053626093        0.0933648405
 C          3.7532913059       -0.7187469311        0.0584824004
 N          2.6035275282       -1.4065867839        0.0125897358
 C          1.4754552464       -0.7213294207       -0.0129159844
 H         -7.1001963552       -2.6478671233        3.5576216863
 H         -4.9373954809       -1.4440815440        3.6681256049
 H         -3.2013606122       -1.8780424254        2.0113792900
 H         -7.4506062233       -4.3422722111        1.7722208080
 H         -6.1052865459       -6.7238934297       -1.8620378893
 H         -4.5140963518       -7.2248926931       -3.7052053143
 H         -2.4126979023       -5.9239337472       -3.8722950364
 H         -1.8902996594       -4.2106950197       -2.2110249242
 H         -0.9490791130       -4.6216420256        0.0574914429
 H          1.1757279170       -3.3352908282        0.0577669332
 H         -3.1344544819       -0.9843164209       -0.2446949490
 H         -3.1321033669        0.9786941750       -0.2750300711
 H         -3.2532556348        1.8517820318        1.9781488327
 H         -5.0138327047        1.4425840661        3.6148949221
 H         -7.1473182669        2.6964741315        3.4962090701
 H         -7.4477672849        4.4055312754        1.7158041907
 H         -6.0379833047        6.7537141661       -1.9161730771
 H         -4.4219908729        7.2271925585       -3.7446805863
 H         -2.3334419621        5.9022014105       -3.8830421028
 H         -1.8515864852        4.1853124265       -2.2128512134
 H         -0.9473791439        4.6105950427        0.0884830246
 H          1.1761585117        3.3217281910        0.1085880363
 H          4.9610350380        2.4741538464        0.1089268747
 H          8.3393913824        0.3961157795       -1.5518001442
 H         10.6640111662        3.3522206241        0.0493676420
 H          6.9669885431        2.8262965199        1.7181621982
 H          8.2402637469       -0.3998215210        1.9601633898
 H         10.6532430600       -3.3583536103        0.5005276958
 H          7.0561657092       -2.8390274967       -1.3760356731
 H          4.9630674464       -2.4846315647        0.1066061888
  92
  -158.258992240000       0.213488556894664      !
 C         -6.0925207981       -3.1723080311        3.1161747450
 C         -4.9222171765       -2.4415533791        3.1155555442
 C         -4.0198746653       -2.5625494845        2.0697603210
 C         -4.2786630012       -3.4081192977        0.9979402727
 C         -5.4530400440       -4.1727979630        1.0268582617
 C         -6.3500933231       -4.0473276419        2.0715938459
 O         -5.7633261126       -5.0871090324        0.0517120025
 C         -4.8894549473       -5.2150809581       -0.9984016584
 C         -5.2280354240       -6.1173200610       -1.9899673665
 C         -4.4122305833       -6.2763563341       -3.1001745889
 C         -3.2701151569       -5.5107990623       -3.2201360453
 C         -2.9252082936       -4.6060814444       -2.2277303694
 C         -3.7113655645       -4.4627561733       -1.0911870494
 N         -3.3920623227       -3.5583199485       -0.0740619816
 C         -2.1793770065       -2.8449559388       -0.1082806179
 C         -0.9605702803       -3.5307170029       -0.1134887951
 C          0.2126386759       -2.8191309019       -0.1113629797
 C          0.2076245316       -1.4200208859       -0.0992018371
 C         -1.0133605509       -0.7163380908       -0.1130278091
 C         -2.1948695168       -1.4595016659       -0.1218490238
 C         -1.0114564882        0.7398714864       -0.0960794937
 C         -2.1899999726        1.4856904782       -0.1494717058
 C         -2.1757131462        2.8701799651       -0.0897263449
 N         -3.3855506326        3.5872844064       -0.1286017830
 C         -4.3766260683        3.3786556891        0.8372314793
 C         -4.2168881146        2.4901385266        1.8938360892
 C         -5.2223166397        2.3093238891        2.8312223439
 C         -6.3993126308        3.0238591881        2.7395791555
 C         -6.5603446872        3.9425012091        1.7136741388
 C         -5.5605468945        4.1265295970        0.7761932623
 O         -5.7835669647        5.0798827522       -0.1844825195
 C         -4.8147051673        5.2551600810       -1.1397545725
 C         -5.0730948936        6.1857316898       -2.1293161914
 C         -4.1585151610        6.3942684555       -3.1505342052
 C         -2.9975418630        5.6489318907       -3.1850459525
 C         -2.7335906661        4.7154597074       -2.1944768539
 C         -3.6208761926        4.5220051791       -1.1428908581
 C         -0.9580714518        3.5510722107        0.0123628199
 C          0.2139466206        2.8377239981        0.0392884464
 C          0.2094737728        1.4396116952       -0.0155649985
 C          1.4620574443        0.7226790966        0.0083823003
 N          2.5904484599        1.4048664790        0.0753077012
 C          3.7396993082        0.7148989965        0.0895343255
 C          4.9690307547        1.3976510588        0.1589672100
 C          6.1552586423        0.7071652424        0.1697536506
 C          7.4216238730        1.4453925704        0.1788414197
 C          8.4515764212        1.1904905962       -0.7306415125
 N          9.5897224973        1.8567768459       -0.7155439079
 C          9.7196384852        2.8020405581        0.1983124672
 N          8.8086119380        3.1562209299        1.0857478164
 C          7.6725184055        2.4839853898        1.0775820827
 C          6.1527982279       -0.7181811981        0.1300556078
 C          7.4111041342       -1.4644669931        0.2230259041
 C          8.3635976623       -1.2178817336        1.2153099149
 N          9.4956650204       -1.8904669122        1.2921445753
 C          9.6945977674       -2.8354902568        0.3910885210
 N          8.8569461781       -3.1836457110       -0.5686479118
 C          7.7291129985       -2.5037983944       -0.6537327041
 C          4.9650470677       -1.4008909280        0.0473511021
 C          3.7385430358       -0.7100007853        0.0247703966
 N          2.5880632341       -1.3939939546       -0.0449074463
 C          1.4610848502       -0.7065439909       -0.0494000556
 H         -6.7997579373       -3.0792259685        3.9250989491
 H         -4.6946098648       -1.7730259122        3.9316238940
 H         -3.0989499087       -2.0018083995        2.0987570490
 H         -7.2436367281       -4.6504104729        2.0506868963
 H         -6.1385954602       -6.6832261149       -1.8752836458
 H         -4.6815129674       -6.9861007193       -3.8662426817
 H         -2.6369437798       -5.6063520820       -4.0886447250
 H         -2.0395157475       -4.0010871083       -2.3430942555
 H         -0.9554590216       -4.6101894677       -0.1014189870
 H          1.1681578032       -3.3187915715       -0.0989655796
 H         -3.1555377423       -0.9698108014       -0.1353282229
 H         -3.1464913300        0.9983062418       -0.2506340986
 H         -3.2939829280        1.9414201841        1.9965867479
 H         -5.0713382942        1.6059278257        3.6354174179
 H         -7.1863534874        2.8841591861        3.4634452402
 H         -7.4565050397        4.5354754073        1.6249603914
 H         -6.0005226810        6.7337498101       -2.0843866087
 H         -4.3659527330        7.1256787704       -3.9154220145
 H         -2.2857710099        5.7825329630       -3.9850299707
 H         -1.8311819347        4.1269131304       -2.2469103329
 H         -0.9532796715        4.6288533514        0.0738192528
 H          1.1679081745        3.3350037596        0.1139899734
 H          4.9536360978        2.4768285265        0.1782428672
 H          8.3475985610        0.4416750400       -1.5066628128
 H         10.6565354044        3.3423390998        0.2147119314
 H          6.9401148180        2.7690603875        1.8227384660
 H          8.2007880196       -0.4691441858        1.9810322880
 H         10.6275498156       -3.3792587711        0.4499584341
 H          7.0565706573       -2.7864047351       -1.4544875086
 H          4.9430298436       -2.4799357711        0.0279673897
  92
  -158.258986490000       0.212193504030623      !
 C         -6.6156872698       -2.6032311998        2.4625191484
 C         -5.4354453475       -1.8952938897        2.5629870862
 C         -4.3606727517       -2.2028654520        1.7431753421
 C         -4.4512373516       -3.2123180311        0.7916120789
 C         -5.6379985017       -3.9560627817        0.7335852770
 C         -6.7076161684       -3.6459335750        1.5537432526
 O         -5.7978772796       -5.0289449953       -0.1056714748
 C         -4.7688121856       -5.3196504238       -0.9641827069
 C         -4.9666202124       -6.3677599222       -1.8444978432
 C         -3.9910803377       -6.6954947303       -2.7734739702
 C         -2.8317550729       -5.9485718099       -2.8321248985
 C         -2.6279574429       -4.8991512983       -1.9495723387
 C         -3.5743232693       -4.5878954073       -0.9805847788
 N         -3.3951262978       -3.5416657890       -0.0677546892
 C         -2.1818044780       -2.8337208332       -0.0266996214
 C         -0.9760312201       -3.5109172281        0.1880268504
 C          0.2015145512       -2.8063599634        0.2068014976
 C          0.2127082776       -1.4154270002        0.0549342129
 C         -0.9986406307       -0.7158820704       -0.1130258410
 C         -2.1783285216       -1.4569615358       -0.1883794526
 C         -0.9926206552        0.7386958396       -0.1698359102
 C         -2.1722656736        1.4831744458       -0.1833089920
 C         -2.1564797456        2.8689254301       -0.1649404517
 N         -3.3720023400        3.5748924575       -0.1088057159
 C         -4.2654806607        3.3638921403        0.9479385612
 C         -3.9786331116        2.5176999071        2.0126345750
 C         -4.8907054835        2.3298529827        3.0395950382
 C         -6.1003337558        2.9938350930        3.0300141410
 C         -6.3853981489        3.8738212579        1.9971972582
 C         -5.4775185748        4.0671492774        0.9720078356
 O         -5.8168445966        4.9852227331        0.0113154302
 C         -4.9277799204        5.1880628850       -1.0138188338
 C         -5.2898610265        6.1060426020       -1.9823303960
 C         -4.4638288666        6.3369764005       -3.0719101027
 C         -3.2873556887        5.6258761833       -3.1950084464
 C         -2.9185915991        4.7062870232       -2.2251105765
 C         -3.7149287399        4.4926710382       -1.1068261840
 C         -0.9359567919        3.5517864855       -0.1739331252
 C          0.2364780928        2.8375096080       -0.1781810839
 C          0.2304225698        1.4385693310       -0.1582335119
 C          1.4797986860        0.7189630649       -0.0862514554
 N          2.6129126634        1.3940675995       -0.1345885722
 C          3.7580104290        0.7047139473       -0.0267823331
 C          4.9923667380        1.3801678975       -0.0734418185
 C          6.1736273640        0.6928125250        0.0556376295
 C          7.4421467889        1.4273830760        0.0648902321
 C          7.7603447857        2.3769807113       -0.9080072146
 N          8.9011455932        3.0409804748       -0.9051346189
 C          9.7503770131        2.7670108376        0.0681350767
 N          9.5512771352        1.9142627053        1.0571955427
 C          8.4075415115        1.2571944716        1.0608044382
 C          6.1613677489       -0.7232968383        0.2199483997
 C          7.4190737216       -1.4731868277        0.2900498245
 C          7.6638772454       -2.4241736481        1.2826613516
 N          8.7922096664       -3.1057922114        1.3495223091
 C          9.7020130160       -2.8484234036        0.4278162101
 N          9.5761465743       -1.9950145484       -0.5725830108
 C          8.4452244161       -1.3200285402       -0.6459392157
 C          4.9676082325       -1.3985496256        0.2735802284
 C          3.7457280441       -0.7104803989        0.1497086194
 N          2.5904378887       -1.3896929922        0.1817531052
 C          1.4687107051       -0.7048837393        0.0592371254
 H         -7.4575951141       -2.3632351531        3.0921910288
 H         -5.3370091266       -1.0955525846        3.2804734473
 H         -3.4386411188       -1.6555596216        1.8589158531
 H         -7.6028700433       -4.2410593665        1.4681481538
 H         -5.8961397094       -6.9112984736       -1.7887888162
 H         -4.1505778459       -7.5185790306       -3.4517630252
 H         -2.0742727680       -6.1719652761       -3.5675279709
 H         -1.7252013213       -4.3133492548       -2.0226858164
 H         -0.9836931418       -4.5800370915        0.3373344657
 H          1.1466847077       -3.3044560943        0.3534334972
 H         -3.1203372485       -0.9708755206       -0.3855553343
 H         -3.1332035710        0.9938557196       -0.1893962063
 H         -3.0292887631        2.0070383305        2.0499338294
 H         -4.6389075975        1.6634958374        3.8503516096
 H         -6.8162115731        2.8466619505        3.8230394449
 H         -7.3089333283        4.4296447817        1.9706701887
 H         -6.2277545875        6.6252921368       -1.8671398623
 H         -4.7520552748        7.0581061901       -3.8201818218
 H         -2.6451928786        5.7758861415       -4.0491303466
 H         -2.0062844433        4.1437357542       -2.3461806917
 H         -0.9269971247        4.6310408132       -0.1531023235
 H          1.1924317554        3.3365755231       -0.1675149439
 H          4.9828437044        2.4538780302       -0.1843235926
 H          7.0787041558        2.5960773491       -1.7208098398
 H         10.6930597581        3.2972827455        0.0610400388
 H          8.2456754380        0.5861319739        1.8957649199
 H          6.9315872566       -2.6297442233        2.0537980334
 H         10.6333969801       -3.3947485298        0.4913418992
 H          8.3445989110       -0.6481350167       -1.4898035367
 H          4.9398353574       -2.4719960451        0.3835138521
  92
  -158.258782670000       0.171026299104337      !
 C         -6.7171852099       -2.4576950099        2.2467596202
 C         -5.5170045228       -1.7972956535        2.4146181476
 C         -4.4071055775       -2.1590360394        1.6670036905
 C         -4.4804905284       -3.1746419321        0.7202461707
 C         -5.6896022238       -3.8728406998        0.5984621968
 C         -6.7947136609       -3.5088321838        1.3464749934
 O         -5.8390784592       -4.9505113075       -0.2361302521
 C         -4.7692779326       -5.2958848711       -1.0216165440
 C         -4.9527235219       -6.3532967443       -1.8939360246
 C         -3.9357462001       -6.7358672519       -2.7547810445
 C         -2.7477348850       -6.0333949238       -2.7545785350
 C         -2.5586511364       -4.9744456996       -1.8801499816
 C         -3.5491946428       -4.6085772568       -0.9766232160
 N         -3.3876854810       -3.5526869653       -0.0708946529
 C         -2.1750496137       -2.8457355933       -0.0064000587
 C         -0.9750172518       -3.5153994087        0.2585773149
 C          0.2027369086       -2.8103217390        0.2831301029
 C          0.2179940360       -1.4239273251        0.0955108320
 C         -0.9912487029       -0.7293038507       -0.1047195881
 C         -2.1677698480       -1.4723347317       -0.1956412725
 C         -0.9876704742        0.7241501783       -0.1761523179
 C         -2.1690439372        1.4656007151       -0.1744625404
 C         -2.1552680427        2.8514402068       -0.1655965398
 N         -3.3705796403        3.5547802268       -0.0791649743
 C         -4.2318280448        3.3477666652        1.0048838920
 C         -3.9141201948        2.5046590321        2.0632448612
 C         -4.7947674455        2.3215120719        3.1181222847
 C         -6.0032991945        2.9870278888        3.1430326266
 C         -6.3183623277        3.8639296048        2.1163523818
 C         -5.4417537217        4.0527182105        1.0634885611
 O         -5.8090268631        4.9682637948        0.1106865652
 C         -4.9542799479        5.1621538471       -0.9449398849
 C         -5.3472022290        6.0727614381       -1.9082939288
 C         -4.5566901503        6.2946429045       -3.0257517126
 C         -3.3849354111        5.5821354113       -3.1813159189
 C         -2.9851623947        4.6700324550       -2.2167039824
 C         -3.7453510421        4.4654199873       -1.0719481085
 C         -0.9363497917        3.5359895470       -0.2086825298
 C          0.2374606031        2.8237621790       -0.2249239696
 C          0.2342210803        1.4252417471       -0.1855616114
 C          1.4837977661        0.7066652287       -0.1055714295
 N          2.6165807556        1.3788332906       -0.1852243242
 C          3.7620791875        0.6937700975       -0.0558630636
 C          4.9960072965        1.3662396283       -0.1389946927
 C          6.1776892448        0.6856335418        0.0183016235
 C          7.4458776723        1.4203408964       -0.0136680982
 C          7.7619284510        2.3155025955       -1.0375257791
 N          8.9013625489        2.9808809603       -1.0716673405
 C          9.7513840242        2.7625154374       -0.0850866560
 N          9.5549140370        1.9639129303        0.9486231976
 C          8.4124623241        1.3057460024        0.9888432210
 C          6.1660604754       -0.7206524247        0.2517102556
 C          7.4251456969       -1.4639010014        0.3588965291
 C          7.6733437876       -2.3613472653        1.3992898508
 N          8.8047433529       -3.0333809001        1.5019012308
 C          9.7140874222       -2.8198506958        0.5686258738
 N          9.5847445200       -2.0206459218       -0.4751674320
 C          8.4507587575       -1.3556823092       -0.5839543644
 C          4.9726373661       -1.3931612815        0.3385568385
 C          3.7503372846       -0.7122810455        0.1827082270
 N          2.5951447607       -1.3903770926        0.2405152082
 C          1.4732462179       -0.7118111931        0.0891526441
 H         -7.5865352612       -2.1742440255        2.8182972025
 H         -5.4311676429       -0.9914281058        3.1268542079
 H         -3.4722321231       -1.6476317570        1.8334299068
 H         -7.7066022550       -4.0679097751        1.2107954009
 H         -5.9044253874       -6.8599438528       -1.8865665697
 H         -4.0847981216       -7.5657661099       -3.4270466743
 H         -1.9557905631       -6.2987108783       -3.4378062195
 H         -1.6323141889       -4.4231486460       -1.9110727965
 H         -0.9859120879       -4.5796598762        0.4389905093
 H          1.1442631911       -3.3049436157        0.4615583391
 H         -3.1035557493       -0.9900234354       -0.4287941088
 H         -3.1285636771        0.9736112820       -0.1548039367
 H         -2.9643772973        1.9936409464        2.0744972015
 H         -4.5190199620        1.6575752222        3.9231441008
 H         -6.6953639459        2.8427841034        3.9574417078
 H         -7.2419822523        4.4201955389        2.1155497159
 H         -6.2808632466        6.5932292973       -1.7670738355
 H         -4.8691789015        7.0094850152       -3.7702853928
 H         -2.7710765123        5.7248910039       -4.0571936243
 H         -2.0772643365        4.1060756657       -2.3621777660
 H         -0.9288938185        4.6154449551       -0.2002852536
 H          1.1923902343        3.3247988525       -0.2356634740
 H          4.9859999057        2.4334074563       -0.3009952544
 H          7.0792629737        2.4885033851       -1.8604721879
 H         10.6930519560        3.2934363169       -0.1217327902
 H          8.2527404739        0.6801411757        1.8587492558
 H          6.9415548216       -2.5298768979        2.1798356317
 H         10.6486961003       -3.3562619064        0.6620038944
 H          8.3473028037       -0.7295669809       -1.4619593803
 H          4.9456610216       -2.4603256266        0.4988096529
  92
  -158.258330210000       0.105956274325069      !
 C         -4.4410904124       -6.0213459487        3.3846140090
 C         -3.3045323290       -5.2409648928        3.4474277622
 C         -2.9534520473       -4.4262154712        2.3819029328
 C         -3.7278757225       -4.3890200326        1.2290607336
 C         -4.8999748754       -5.1556323464        1.1912346495
 C         -5.2446162365       -5.9680780569        2.2555409393
 O         -5.7621878376       -5.1293481954        0.1245075749
 C         -5.4426700357       -4.3099093370       -0.9285514631
 C         -6.3235901782       -4.2927769141       -1.9941574973
 C         -6.0556855658       -3.5181223528       -3.1126599550
 C         -4.8922507844       -2.7777447076       -3.1625331983
 C         -4.0064057408       -2.7899863049       -2.0958139072
 C         -4.2751195538       -3.5348768687       -0.9541764901
 N         -3.4038320138       -3.5750978869        0.1391499251
 C         -2.1930305427       -2.8563253515        0.1245388913
 C         -0.9744759717       -3.5381048086        0.2001428047
 C          0.1983040201       -2.8259005650        0.1905164498
 C          0.1933450668       -1.4300403107        0.0964939378
 C         -1.0272279593       -0.7304604583        0.0047824010
 C         -2.2090651837       -1.4737059170        0.0339029745
 C         -1.0243280758        0.7227438864       -0.0989885272
 C         -2.1992211047        1.4642214061       -0.2382185700
 C         -2.1780132967        2.8478776765       -0.3161654945
 N         -3.3838170800        3.5631694580       -0.4394000222
 C         -4.3609103759        3.4939338105        0.5593978633
 C         -4.1963249610        2.7381332532        1.7136438793
 C         -5.1856794171        2.6953657120        2.6841285770
 C         -6.3513564921        3.4166809054        2.5253494439
 C         -6.5170858735        4.2039362845        1.3960382509
 C         -5.5326660960        4.2511942709        0.4260965100
 O         -5.7571101869        5.0820780124       -0.6421563167
 C         -4.7829023863        5.1527261096       -1.6053225611
 C         -5.0233062735        5.9923896030       -2.6772621401
 C         -4.1029993519        6.0912902945       -3.7097096386
 C         -2.9540547426        5.3279720260       -3.6704923738
 C         -2.7073983568        4.4860462687       -2.5968956491
 C         -3.6008289689        4.4038839499       -1.5360463131
 C         -0.9592557897        3.5321566230       -0.2665189947
 C          0.2086570525        2.8214192657       -0.1523001743
 C          0.1976091337        1.4248201058       -0.0710111250
 C          1.4484882866        0.7126583926        0.0318178336
 N          2.5757731890        1.3993290279        0.0476315168
 C          3.7248778149        0.7148644341        0.1318134963
 C          4.9523659375        1.4041487131        0.1437818401
 C          6.1396052812        0.7202320784        0.2219427206
 C          7.4040993749        1.4598655201        0.1678830224
 C          8.4359904700        1.1313031125       -0.7151411924
 N          9.5719670717        1.8005718985       -0.7558915940
 C          9.6975117050        2.8212949856        0.0731564069
 N          8.7836181059        3.2476570679        0.9256260333
 C          7.6501497880        2.5732860180        0.9739630873
 C          6.1390952168       -0.7027158968        0.3133980006
 C          7.3998422252       -1.4327841455        0.4758011848
 C          8.3504858470       -1.0917907025        1.4416831757
 N          9.4857301624       -1.7488653293        1.5800454236
 C          9.6908949674       -2.7700984817        0.7674698871
 N          8.8564547974       -3.2076243283       -0.1574814685
 C          7.7241699860       -2.5451161045       -0.3033262319
 C          4.9528196212       -1.3928465625        0.2907532588
 C          3.7247898804       -0.7099005580        0.1990424131
 N          2.5746537607       -1.3983392656        0.1853095125
 C          1.4476409860       -0.7155256564        0.1036613379
 H         -4.7154745614       -6.6610867058        4.2083201569
 H         -2.6805282914       -5.2543908013        4.3276926169
 H         -2.0714931438       -3.8089884956        2.4521230193
 H         -6.1503638991       -6.5483862272        2.1820349362
 H         -7.2118064559       -4.9006171242       -1.9300946052
 H         -6.7499840847       -3.5093293776       -3.9378204539
 H         -4.6580744655       -2.1859827297       -4.0340080356
 H         -3.0908218143       -2.2233386786       -2.1609602983
 H         -0.9695098470       -4.6159446329        0.2606662657
 H          1.1537381919       -3.3226641544        0.2473944186
 H         -3.1695690340       -0.9846214033       -0.0006825105
 H         -3.1574418814        0.9734362797       -0.3007291805
 H         -3.2821525708        2.1860002466        1.8654366673
 H         -5.0300683320        2.0951255999        3.5673294172
 H         -7.1260208653        3.3832592258        3.2748649268
 H         -7.4043842221        4.7986634521        1.2494955273
 H         -5.9416475157        6.5570629851       -2.6859451554
 H         -4.2969866304        6.7519485970       -4.5397031148
 H         -2.2377377693        5.3769496784       -4.4761508389
 H         -1.8135506732        3.8822831282       -2.5899274705
 H         -0.9507238414        4.6106377778       -0.3134052186
 H          1.1640444177        3.3199402619       -0.1130684898
 H          4.9342036693        2.4803490268        0.0621716110
 H          8.3356516053        0.3181824110       -1.4239279689
 H         10.6333342843        3.3629325200        0.0448736482
 H          6.9145414415        2.9191448007        1.6897650660
 H          8.1826778818       -0.2780000828        2.1368205431
 H         10.6265943790       -3.3016349563        0.8763365095
 H          7.0552694286       -2.9006719098       -1.0774939688
 H          4.9337201541       -2.4692097374        0.3694254244
  92
  -158.257485940000       4.336377190748173E-002 !
 C         -4.6919668267       -5.5859339947        3.6253761422
 C         -3.5810491899       -4.7692380245        3.6828535474
 C         -3.1514957278       -4.0903319517        2.5524492803
 C         -3.8250177863       -4.2260026084        1.3455451333
 C         -4.9675814180       -5.0357318070        1.3034101296
 C         -5.3887309346       -5.7130626042        2.4321819760
 O         -5.7209939308       -5.1851791074        0.1653919783
 C         -5.2894060613       -4.5436273771       -0.9693517292
 C         -6.0200236816       -4.7500187194       -2.1243477324
 C         -5.6315739841       -4.1532265493       -3.3151484543
 C         -4.5033152792       -3.3595034881       -3.3428774189
 C         -3.7663005107       -3.1484156737       -2.1871127456
 C         -4.1530682977       -3.7236672809       -0.9838759840
 N         -3.4283470527       -3.5410281229        0.1959221192
 C         -2.2133374229       -2.8210637138        0.1808077285
 C         -1.0000988604       -3.5000963067        0.3166417708
 C          0.1742733226       -2.7910515162        0.2760355857
 C          0.1690687544       -1.4014346613        0.1183054449
 C         -1.0485693620       -0.7018889512       -0.0002672197
 C         -2.2312003950       -1.4456673300        0.0265808077
 C         -1.0407392213        0.7504581422       -0.1168945594
 C         -2.2137457548        1.4927242151       -0.2672566748
 C         -2.1918622738        2.8770418955       -0.3324896991
 N         -3.3963764641        3.5947342167       -0.4571324871
 C         -4.3765325894        3.5267960258        0.5390403543
 C         -4.2292970465        2.7481376265        1.6803703452
 C         -5.2225595937        2.7063772576        2.6469294209
 C         -6.3748101616        3.4507376665        2.4967381821
 C         -6.5226369557        4.2604366657        1.3808848430
 C         -5.5339954557        4.3074891104        0.4152455263
 O         -5.7394437406        5.1622688885       -0.6380098897
 C         -4.7705066251        5.2174425722       -1.6074444571
 C         -4.9992913811        6.0666913957       -2.6743720420
 C         -4.0830395648        6.1495570070       -3.7120246286
 C         -2.9501928271        5.3615928771       -3.6832646884
 C         -2.7146472193        4.5109650688       -2.6140284699
 C         -3.6036972173        4.4442641564       -1.5484255253
 C         -0.9737960236        3.5608796375       -0.2644804988
 C          0.1927070031        2.8496546436       -0.1377416925
 C          0.1809441167        1.4525847779       -0.0637825768
 C          1.4299878419        0.7389592953        0.0530005375
 N          2.5588117417        1.4212418361        0.1148842566
 C          3.7059642512        0.7307176762        0.1742025420
 C          4.9354649186        1.4120722224        0.2619794915
 C          6.1200767556        0.7194289190        0.2730662703
 C          7.3906244137        1.4496568987        0.3231806171
 C          8.4223291646        1.2381687405       -0.5948534463
 N          9.5697483069        1.8858572008       -0.5305390237
 C          9.7070450169        2.7684192808        0.4426339814
 N          8.7935586060        3.0811439109        1.3434559996
 C          7.6482155113        2.4278210691        1.2854920560
 C          6.1173465500       -0.7044649656        0.2017574394
 C          7.3787477172       -1.4503809132        0.2539954169
 C          8.3298894178       -1.2564531453        1.2589211782
 N          9.4644162604       -1.9280487946        1.2978813880
 C          9.6684364935       -2.8172846190        0.3423900253
 N          8.8338957170       -3.1110752716       -0.6375940731
 C          7.7017662701       -2.4338093260       -0.6826330572
 C          4.9295380713       -1.3869331910        0.1252881520
 C          3.7033206620       -0.6952261401        0.1284517978
 N          2.5507866496       -1.3787964904        0.1105031695
 C          1.4255859590       -0.6901370141        0.0931629201
 H         -5.0283198402       -6.1184953257        4.5008248514
 H         -3.0388913106       -4.6487783904        4.6081373778
 H         -2.2885210281       -3.4448495874        2.6095627357
 H         -6.2689989414       -6.3313731322        2.3586979271
 H         -6.8878009873       -5.3878261408       -2.0725169605
 H         -6.2078250594       -4.3211503824       -4.2111600244
 H         -4.1808740753       -2.8997654437       -4.2644166403
 H         -2.8770708299       -2.5383575432       -2.2241482411
 H         -1.0009306959       -4.5721771069        0.4435105451
 H          1.1291519307       -3.2846024965        0.3621065208
 H         -3.1922818725       -0.9642894313       -0.0606710120
 H         -3.1707581381        1.0018008007       -0.3447443768
 H         -3.3256857874        2.1771821091        1.8255172429
 H         -5.0811314632        2.0878897634        3.5198375164
 H         -7.1524129665        3.4182771571        3.2431993901
 H         -7.3988215699        4.8733806429        1.2426288316
 H         -5.9051768386        6.6514488038       -2.6756741021
 H         -4.2677138770        6.8176038576       -4.5382498419
 H         -2.2390498737        5.3975517531       -4.4940649706
 H         -1.8333747597        3.8886840184       -2.6127389833
 H         -0.9649696233        4.6395999487       -0.3061676415
 H          1.1472333902        3.3483688013       -0.0821259599
 H          4.9214880376        2.4910331323        0.2921587844
 H          8.3134486592        0.5403097694       -1.4163321476
 H         10.6531049335        3.2893764514        0.5016928960
 H          6.9124377837        2.6782311222        2.0399143413
 H          8.1632474759       -0.5527556815        2.0655878344
 H         10.6031321347       -3.3608162483        0.3710643161
 H          7.0314665281       -2.6710956906       -1.4997650789
 H          4.9080212783       -2.4656786631        0.0923698008
