  77
       -121.52604160
 C          4.2568072536        3.3440395543        0.3912977369
 C          4.7720014311        2.2029332451        1.2738517397
 C          4.1864199322        2.3097037109        2.6848886022
 C          6.2829686872        2.1810921865        1.3067708420
 C          7.1503521333        3.1415769390        1.7796086813
 C          8.5169144402        2.9054920017        1.7055091269
 C          9.0038600246        1.7258849706        1.1646766558
 C          8.1383092722        0.7552786653        0.6868410436
 C          6.7746913935        0.9870773182        0.7605671991
 C          5.6485918093        0.1650070266        0.3487306380
 C          5.6219300628       -1.0943956689       -0.2190818284
 C          4.3764938911       -1.6356625910       -0.5109721664
 C          3.9661939479       -2.8995514928       -1.0601466478
 C          4.6628090086       -4.0049334972       -1.5284057296
 C          3.9471915754       -5.0778094738       -2.0230461809
 C          2.5562603961       -5.0495704608       -2.0709968965
 C          1.8407253092       -3.9585785176       -1.6126244612
 C          2.5543911623       -2.8919349688       -1.0889435310
 N          2.0976631275       -1.6796010515       -0.5979324323
 C          0.7655021633       -1.3007752298       -0.4896445471
 C         -0.1583507686       -2.1468681900        0.1244302196
 C         -1.4790280975       -1.7756348434        0.2515070804
 C         -1.9181246344       -0.5412056514       -0.2307933867
 C         -3.3187971540       -0.1430872594       -0.0808543506
 N         -3.6772210033        1.0497283258       -0.5415444429
 C         -4.9605908958        1.3694953928       -0.3853975373
 C         -5.4127335973        2.6666908586       -0.8834993446
 C         -4.5111088615        3.5395171687       -1.4902590844
 C         -4.9443687685        4.7637941126       -1.9605775390
 C         -6.2760756061        5.1269124507       -1.8309497500
 C         -7.1769728762        4.2622748113       -1.2283249349
 C         -6.7505703808        3.0368183118       -0.7552376006
 N         -5.8542732309        0.5770820071        0.1985017078
 C         -5.4069642849       -0.5962335497        0.6334498876
 C         -6.3546312680       -1.4966286542        1.2866545233
 C         -5.9388663122       -2.7511080972        1.7295814385
 C         -6.8371615652       -3.5986736377        2.3477800379
 C         -8.1535375490       -3.2034990502        2.5300050482
 C         -8.5720942937       -1.9566630010        2.0914433857
 C         -7.6792841386       -1.1044153083        1.4715475448
 N         -4.1436574248       -0.9998523242        0.5095436934
 C         -1.0147218206        0.3076623077       -0.8559961245
 C          0.3189732656       -0.0640057467       -0.9954302533
 C          1.1845393959        0.7953592099       -1.7105643219
 N          1.8421737894        1.5072559627       -2.3244195746
 C          3.1937258907       -0.9108615832       -0.2402737546
 C          3.2204189712        0.3361501495        0.3723674232
 C          4.4605404872        0.8635486301        0.6473608277
 H          4.6740338073        3.2596528701       -0.6090726588
 H          3.1733533265        3.3023509147        0.3141659639
 H          4.5435060561        4.3052013969        0.8110169701
 H          3.1006750045        2.2616752344        2.6481038514
 H          4.4771234235        3.2519357965        3.1428859698
 H          4.5510132325        1.4942023155        3.3059836047
 H          6.7814642133        4.0654182287        2.2013214984
 H          9.2082039579        3.6499849827        2.0725930255
 H         10.0707179069        1.5627546800        1.1155379740
 H          8.5210148331       -0.1624689659        0.2655654882
 H          6.5276820710       -1.6430804204       -0.4251575995
 H          5.7418190392       -4.0188814490       -1.5091513774
 H          4.4702634116       -5.9484840175       -2.3889426715
 H          2.0233609537       -5.8953713445       -2.4790597787
 H          0.7631126601       -3.9400838186       -1.6751357267
 H          0.1855715726       -3.0892425287        0.5235422296
 H         -2.1910216307       -2.4239961148        0.7369454467
 H         -3.4785464979        3.2416106616       -1.5843987496
 H         -4.2443969890        5.4386054119       -2.4310226052
 H         -6.6121119954        6.0848708443       -2.2000498137
 H         -8.2138691992        4.5478003790       -1.1286332445
 H         -7.4375735162        2.3505368507       -0.2854270948
 H         -4.9110357580       -3.0424848640        1.5797586479
 H         -6.5137208396       -4.5707587615        2.6901644294
 H         -8.8537567604       -3.8680976688        3.0146194664
 H         -9.5980387547       -1.6511273760        2.2354443433
 H         -7.9866363223       -0.1298628968        1.1259468454
 H         -1.3575336926        1.2544825077       -1.2434995619
 H          2.3150607731        0.8660775901        0.6260763385
