  44
  -64.5652527209000       0.210136828626741      !
 C         -5.6585525950       -0.0240233395        0.2757174450
 C         -5.0714406206        0.4489694216       -0.8859010107
 C         -3.6937989158        0.4613353994       -1.0151504054
 C         -2.8866928802       -0.0025967978        0.0182936896
 C         -1.4121296164        0.0101259067       -0.0854042476
 C         -0.7143320313       -1.2029229466       -0.1705579868
 C         -1.3914386780       -2.4458980575       -0.2806368754
 C         -0.7052814176       -3.6171842044       -0.3759467560
 C          0.7039275044       -3.6174696534       -0.3751276506
 C          1.3908355807       -2.4466304961       -0.2792135292
 C          0.7146910612       -1.2030445816       -0.1698035655
 C          1.4126674658        0.0101724446       -0.0847804114
 C          2.8870155926       -0.0026136382        0.0185820545
 C          3.4870727960       -0.4956626878        1.1740607157
 C          4.8637642686       -0.5048678999        1.3012995138
 C          5.6593045738       -0.0240622474        0.2745594766
 C          5.0710801634        0.4630779205       -0.8806090820
 C          3.6934113583        0.4748727112       -1.0093635895
 C          0.7153834270        1.2264866419       -0.0556715696
 C          1.3901649579        2.4740303590        0.0114329256
 C          0.7036303869        3.6482021384        0.0495546287
 C         -0.7054518285        3.6479117394        0.0487485154
 C         -1.3910488179        2.4732518113        0.0103155654
 C         -0.7150714798        1.2263101606       -0.0557808125
 C         -3.4854730684       -0.4821793992        1.1799819501
 C         -4.8620856161       -0.4908173859        1.3081590723
 H         -6.7337391374       -0.0287957916        0.3767292325
 H         -5.6895550149        0.8111747443       -1.6945528973
 H         -3.2350824599        0.8258731094       -1.9233726589
 H         -2.4710624682       -2.4435829778       -0.3009487532
 H         -1.2346452100       -4.5545920188       -0.4643279902
 H          1.2329557635       -4.5551710490       -0.4625962879
 H          2.4704378189       -2.4456312350       -0.2987544089
 H          2.8628650217       -0.8672825291        1.9742725286
 H          5.3168304749       -0.8866011718        2.2046866264
 H          6.7345660598       -0.0295902179        0.3747139050
 H          5.6883300850        0.8361965143       -1.6849384530
 H          3.2339622343        0.8525408575       -1.9118385666
 H          2.4694870172        2.4756249856        0.0308449674
 H          1.2328674700        4.5889785013        0.0902294745
 H         -1.2352033663        4.5883668907        0.0898925023
 H         -2.4703930680        2.4733787681        0.0305955188
 H         -2.8602950420       -0.8406801263        1.9854023919
 H         -5.3141323152       -0.8570866662        2.2183998372
  44
  -64.5651267947000       0.183920652499447      !
 C         -5.6745101443        0.0019001566       -0.0260379980
 C         -4.9697923668        0.5355377691       -1.0920453021
 C         -3.5866627570        0.5346060085       -1.0804189362
 C         -2.8909626682       -0.0036702436       -0.0022952126
 C         -1.4127045450       -0.0045119908        0.0083260752
 C         -0.7136379064       -1.2136188844       -0.1126630219
 C         -1.3868788598       -2.4542100519       -0.2674332161
 C         -0.6983563222       -3.6238973925       -0.3635755567
 C          0.7099705464       -3.6268557809       -0.3083219203
 C          1.3941812190       -2.4574552880       -0.1830421475
 C          0.7160581283       -1.2126195523       -0.1001484661
 C          1.4120961977       -0.0007718590        0.0074564341
 C          2.8906495694        0.0024282150       -0.0019126256
 C          3.6045794052        0.3048276648        1.1534857797
 C          4.9876544598        0.3071741282        1.1414219076
 C          5.6738610849        0.0126595882       -0.0249029131
 C          4.9708097438       -0.2879659815       -1.1795444817
 C          3.5877058846       -0.2954241109       -1.1686340239
 C          0.7132672824        1.2091799477        0.1206823899
 C          1.3874287885        2.4557611123        0.2063127028
 C          0.6996828350        3.6225927990        0.3368220489
 C         -0.7083264015        3.6151754704        0.3951775542
 C         -1.3932537605        2.4436659058        0.2953172243
 C         -0.7163145634        1.2058934411        0.1348602946
 C         -3.6069268383       -0.5391854543        1.0641104357
 C         -4.9898082964       -0.5340362494        1.0520906741
 H         -6.7543381952        0.0056499500       -0.0339612365
 H         -5.4990517471        0.9556379007       -1.9352330291
 H         -3.0344165849        0.9485847994       -1.9121779495
 H         -2.4658030971       -2.4527147256       -0.3093236493
 H         -1.2252407698       -4.5596870393       -0.4800818100
 H          1.2402340303       -4.5658932685       -0.3706098169
 H          2.4731457755       -2.4590688008       -0.1426782168
 H          3.0663710600        0.5348028055        2.0620587956
 H          5.5321842647        0.5434239769        2.0442094478
 H          6.7537906201        0.0189527607       -0.0341347141
 H          5.5016382939       -0.5184329664       -2.0918083182
 H          3.0362486324       -0.5290382367       -2.0683582512
 H          2.4662808329        2.4618593624        0.1631197406
 H          1.2270952839        4.5632143885        0.3996393347
 H         -1.2380383769        4.5488205298        0.5158034024
 H         -2.4720353544        2.4383720129        0.3396565829
 H         -3.0702015773       -0.9535413017        1.9057061665
 H         -5.5355956347       -0.9473311665        1.8875479235
  44
  -64.5650772040000       0.174517985527467      !
 C         -5.6528688114        0.0338935345       -0.3365653960
 C         -4.8391507029       -0.3491057219       -1.3898345016
 C         -3.4657261851       -0.3666906966       -1.2337334669
 C         -2.8859222730        0.0022595267       -0.0225140361
 C         -1.4140119410       -0.0046585827        0.1038530686
 C         -0.7188487480       -1.2203841999        0.0219464825
 C         -1.3992674807       -2.4652757125       -0.0325938634
 C         -0.7178917550       -3.6386869621       -0.1359314707
 C          0.6897519994       -3.6398432870       -0.2033041796
 C          1.3808698576       -2.4695870247       -0.1365547173
 C          0.7105934253       -1.2258271644        0.0030963631
 C          1.4106467064       -0.0158344562        0.1013197736
 C          2.8839401742        0.0015668319       -0.0247443180
 C          3.7104163917       -0.4920343713        0.9787111759
 C          5.0854889536       -0.4719741453        0.8240408207
 C          5.6496513409        0.0359409684       -0.3341415050
 C          4.8331480255        0.5303890699       -1.3377060880
 C          3.4593611359        0.5162312341       -1.1830829543
 C          0.7169228296        1.1904025489        0.2694742941
 C          1.4030855202        2.4181154154        0.4632648286
 C          0.7262041893        3.5898295664        0.6048357983
 C         -0.6814219085        3.6075577417        0.5397388727
 C         -1.3768055310        2.4508703079        0.3648108456
 C         -0.7126970615        1.2007952255        0.2537364867
 C         -3.7109357253        0.3804374866        1.0317154733
 C         -5.0856314950        0.3950452365        0.8739381618
 H         -6.7257315474        0.0494067448       -0.4588997068
 H         -5.2754861183       -0.6341820090       -2.3360393797
 H         -2.8272833324       -0.6592316908       -2.0552798005
 H         -2.4777327581       -2.4653094195        0.0212466388
 H         -1.2502378793       -4.5780097882       -0.1685894506
 H          1.2140603127       -4.5790337262       -0.3022899204
 H          2.4595557308       -2.4704547820       -0.1826774409
 H          3.2692780979       -0.8865194801        1.8830823329
 H          5.7195809302       -0.8556589082        1.6100442951
 H          6.7227895085        0.0473368362       -0.4547341997
 H          5.2675222783        0.9283856320       -2.2432452738
 H          2.8181318349        0.9000489061       -1.9638237517
 H          2.4819825975        2.4016074736        0.5074562981
 H          1.2610935767        4.5150343147        0.7617012288
 H         -1.2032490068        4.5488472773        0.6321794436
 H         -2.4547741950        2.4692583856        0.3120940269
 H         -3.2692099882        0.6556658298        1.9789068127
 H         -5.7171934153        0.6910690260        1.6989064343
  44
  -64.5648855530000       0.142483144098218      !
 C         -5.6746018679        0.0027888008       -0.0733768598
 C         -4.9535950431        0.4722244903       -1.1584339056
 C         -3.5708585351        0.4737539936       -1.1253729593
 C         -2.8921680712        0.0001382453       -0.0070002732
 C         -1.4136552003       -0.0027074376        0.0204444234
 C         -0.7159006073       -1.2154227042       -0.0662059914
 C         -1.3873336690       -2.4610062490       -0.1816551538
 C         -0.6956408374       -3.6303242217       -0.2610035778
 C          0.7138487450       -3.6286367931       -0.2374380937
 C          1.3964090232       -2.4553814841       -0.1460468902
 C          0.7136743853       -1.2135616321       -0.0612222569
 C          1.4083424437       -0.0009479915        0.0202435899
 C          2.8895024039        0.0019319696       -0.0070663431
 C          3.6201613676       -0.0839109639        1.1724924455
 C          5.0032488533       -0.0806727353        1.1390120278
 C          5.6694467813        0.0085034810       -0.0716288865
 C          4.9476377206        0.0939649939       -1.2503279286
 C          3.5647635824        0.0907485896       -1.2192951909
 C          0.7124171584        1.2097033710        0.1181519983
 C          1.3931727101        2.4514507602        0.2188789676
 C          0.7085422523        3.6216624795        0.3319535978
 C         -0.7010039097        3.6208320314        0.3553611256
 C         -1.3908037969        2.4520910352        0.2546323882
 C         -0.7169657657        1.2093106691        0.1235930226
 C         -3.6237343770       -0.4707047120        1.0783228934
 C         -5.0066589287       -0.4666351163        1.0451507070
 H         -6.7542000246        0.0027826755       -0.0997046914
 H         -5.4700171837        0.8372889346       -2.0344075659
 H         -3.0055542155        0.8363531797       -1.9722073440
 H         -2.4667750352       -2.4637566780       -0.2074172826
 H         -1.2215011895       -4.5700943119       -0.3473737130
 H          1.2450784473       -4.5671102287       -0.2993905472
 H          2.4764897241       -2.4480182208       -0.1354945120
 H          3.0964895552       -0.1528573037        2.1152549754
 H          5.5628191095       -0.1476094056        2.0605934439
 H          6.7490487802        0.0113612222       -0.0967667225
 H          5.4634506832        0.1642623045       -2.1968594486
 H          2.9974350326        0.1589456588       -2.1365015489
 H          2.4732424538        2.4459443078        0.2095605618
 H          1.2382814059        4.5596114250        0.4118353690
 H         -1.2280676356        4.5581044701        0.4583455950
 H         -2.4703603479        2.4521432584        0.2805303878
 H         -3.1001180228       -0.8349256954        1.9507250204
 H         -5.5648504174       -0.8328077346        1.8943438122
  44
  -64.5647686667000       0.125905953314742      !
 C         -5.6363440932       -0.0472730198        0.4261852520
 C         -5.1111111298       -0.2652041889       -0.8364950168
 C         -3.7415636866       -0.2442869663       -1.0355867975
 C         -2.8813472389       -0.0018642983        0.0295993680
 C         -1.4118026008        0.0107819079       -0.1320179096
 C         -0.7154354688       -1.1858810879       -0.3525166765
 C         -1.3910744369       -2.4200512811       -0.5425893219
 C         -0.7050132218       -3.5772258990       -0.7468307773
 C          0.7041345200       -3.5776491944       -0.7451892086
 C          1.3904820118       -2.4208569573       -0.5396922430
 C          0.7152486275       -1.1861960307       -0.3513753525
 C          1.4118064049        0.0104714658       -0.1312214648
 C          2.8813381324       -0.0018568247        0.0300777811
 C          3.4191336963        0.2288244515        1.2935790405
 C          4.7872321074        0.2042719320        1.4901586980
 C          5.6365525789       -0.0461059791        0.4251945302
 C          5.1105980950       -0.2685458657       -0.8363717041
 C          3.7409711446       -0.2481621955       -1.0347261450
 C          0.7143987029        1.2193094646        0.0023790298
 C          1.3916738026        2.4610525127        0.1219614241
 C          0.7048511024        3.6304611993        0.2353962117
 C         -0.7044261411        3.6304554244        0.2365369020
 C         -1.3913732129        2.4611198349        0.1234795754
 C         -0.7142195390        1.2194092080        0.0025651487
 C         -3.4183352561        0.2238719790        1.2943506039
 C         -4.7863511098        0.1988006000        1.4916670400
 H         -6.7050049773       -0.0688828838        0.5802275920
 H         -5.7717299613       -0.4526517955       -1.6705376092
 H         -3.3320885123       -0.4086014100       -2.0222376678
 H         -2.4705019290       -2.4236941369       -0.5272199660
 H         -1.2344850859       -4.5057317115       -0.9028100492
 H          1.2333687674       -4.5068525008       -0.8979452419
 H          2.4698420042       -2.4254226984       -0.5208527271
 H          2.7521308725        0.4212578350        2.1219287514
 H          5.1911589183        0.3793068858        2.4767031411
 H          6.7053031254       -0.0674438039        0.5787317684
 H          5.7706230704       -0.4605699922       -1.6698210728
 H          3.3307770808       -0.4179332723       -2.0201908665
 H          2.4714482779        2.4616954807        0.1033754051
 H          1.2338588085        4.5687753035        0.3164368507
 H         -1.2332967860        4.5687953026        0.3179838949
 H         -2.4711435334        2.4617941572        0.1053456548
 H         -2.7508262574        0.4137283636        2.1228641537
 H         -5.1897173780        0.3710320080        2.4789668551
  44
  -64.5645056942000       9.532185216155158E-002 !
 C         -5.6327471052        0.0472832004       -0.4484936945
 C         -4.7813579792       -0.3357777379       -1.4716429669
 C         -3.4152938505       -0.3613965636       -1.2625933293
 C         -2.8802563690       -0.0007722764       -0.0282097436
 C         -1.4128131464       -0.0080638875        0.1426051388
 C         -0.7145205705       -1.2226721477        0.0724438815
 C         -1.3935302855       -2.4679234521        0.0101315844
 C         -0.7104546456       -3.6411876242       -0.0837440960
 C          0.6978137889       -3.6411426518       -0.1326676140
 C          1.3872147738       -2.4699332183       -0.0625194138
 C          0.7150480417       -1.2260759936        0.0652473355
 C          1.4114613360       -0.0125828511        0.1538098918
 C          2.8797409517        0.0096956871       -0.0174921696
 C          3.7486745211       -0.5035900549        0.9388308534
 C          5.1148609065       -0.4963182067        0.7162196958
 C          5.6275240757        0.0193500500       -0.4622458378
 C          4.7689805950        0.5400378329       -1.4162622330
 C          3.4047209923        0.5379939761       -1.1941151187
 C          0.7138038496        1.1914391500        0.3222559677
 C          1.3968196321        2.4211349383        0.5145529305
 C          0.7170175122        3.5916083333        0.6529849693
 C         -0.6906230434        3.6055446834        0.5872454907
 C         -1.3830549586        2.4469095312        0.4131534612
 C         -0.7158096403        1.1985323674        0.3030482617
 C         -3.7430016106        0.3743502393        0.9963084088
 C         -5.1106118812        0.3973503867        0.7853666433
 H         -6.6998758807        0.0711498734       -0.6125383267
 H         -5.1820372720       -0.6127369752       -2.4359439805
 H         -2.7469662886       -0.6542497565       -2.0599145075
 H         -2.4726124402       -2.4680703448        0.0503277828
 H         -1.2416684333       -4.5808520424       -0.1237640734
 H          1.2247231233       -4.5799838337       -0.2207526979
 H          2.4662421969       -2.4717087371       -0.0955610684
 H          3.3491488194       -0.9043968881        1.8596815536
 H          5.7826041681       -0.8978082888        1.4646384194
 H          6.6932304972        0.0167444903       -0.6371646956
 H          5.1626795917        0.9482308214       -2.3357628340
 H          2.7298719524        0.9410311252       -1.9358998973
 H          2.4756889095        2.4066086143        0.5613977707
 H          1.2491892754        4.5185418988        0.8088705614
 H         -1.2151606622        4.5454321308        0.6787496661
 H         -2.4611209485        2.4626997757        0.3619729044
 H         -3.3372012233        0.6410524697        1.9619061589
 H         -5.7720391364        0.6922705163        1.5870413813
  44
  -64.5641825285000       6.771358377183387E-002 !
 C         -5.6385141415        0.0421436275       -0.4146101828
 C         -4.7957796394       -0.2905933654       -1.4622023532
 C         -3.4270827914       -0.3132233118       -1.2693228012
 C         -2.8819758755        0.0012232014       -0.0271042649
 C         -1.4121558437       -0.0074543257        0.1295065919
 C         -0.7170539027       -1.2231792015        0.0588443358
 C         -1.4004432758       -2.4665151756        0.0083773651
 C         -0.7208613551       -3.6421789873       -0.0782702335
 C          0.6871678746       -3.6455790906       -0.1377435845
 C          1.3803601390       -2.4757754955       -0.0830146506
 C          0.7124696085       -1.2293269926        0.0429585207
 C          1.4117442788       -0.0171343368        0.1260528037
 C          2.8817247065        0.0044358485       -0.0291288026
 C          3.7341257270       -0.5128977979        0.9401937636
 C          5.1045365342       -0.4935528548        0.7475619123
 C          5.6384350944        0.0384588203       -0.4140961509
 C          4.7964340370        0.5594814396       -1.3824943431
 C          3.4275644005        0.5451169801       -1.1903240076
 C          0.7168423129        1.1889582974        0.2941259958
 C          1.4008070126        2.4183969933        0.4840199281
 C          0.7216430372        3.5885068618        0.6291868273
 C         -0.6865043855        3.6033187444        0.5746450388
 C         -1.3801390662        2.4452598212        0.4020617270
 C         -0.7127405603        1.1978928068        0.2827268702
 C         -3.7352387588        0.3292583446        1.0208326581
 C         -5.1054888153        0.3473525993        0.8265087468
 H         -6.7076514418        0.0623140695       -0.5655521649
 H         -5.2054325455       -0.5322124519       -2.4322647688
 H         -2.7651642651       -0.5685026677       -2.0846856294
 H         -2.4794051649       -2.4618918237        0.0536857303
 H         -1.2542544958       -4.5810903780       -0.1049689140
 H          1.2106369206       -4.5865335996       -0.2238879952
 H          2.4589925520       -2.4803643104       -0.1271891693
 H          3.3174949215       -0.9242857078        1.8486578309
 H          5.7588316052       -0.8969614675        1.5066921834
 H          6.7077538684        0.0479745869       -0.5647156971
 H          5.2068028540        0.9769837193       -2.2904554071
 H          2.7663061015        0.9482239192       -1.9442006526
 H          2.4798678344        2.4047863712        0.5248727994
 H          1.2553609128        4.5146931942        0.7843560261
 H         -1.2098233685        4.5429292341        0.6752176133
 H         -2.4588532077        2.4587217374        0.3619016825
 H         -3.3195404647        0.5642825671        1.9904699035
 H         -5.7604492124        0.6015735066        1.6472176453
