  44
        -64.83645768
 C         -5.6745051538        0.0050723291       -0.0266926353
 C         -4.9692430609        0.4340346095       -1.1386119499
 C         -3.5861151841        0.4328347179       -1.1268053902
 C         -2.8909648750       -0.0009880409       -0.0022367787
 C         -1.4127084335       -0.0022889742        0.0085706238
 C         -0.7148538668       -1.2181195880        0.0033812782
 C         -1.3893374838       -2.4671401259       -0.0325796098
 C         -0.7019876925       -3.6413530976       -0.0167912984
 C          0.7063350125       -3.6404397060        0.0386398238
 C          1.3917171960       -2.4651062107        0.0520269919
 C          0.7148423405       -1.2173590190        0.0158928960
 C          1.4120946473       -0.0014668335        0.0076433803
 C          2.8906505676       -0.0006488556       -0.0018336450
 C          3.6048731678        0.4097236390        1.1195793948
 C          4.9879499867        0.4095304400        1.1074911627
 C          5.6738711483        0.0045693352       -0.0254036239
 C          4.9705288100       -0.4039761050       -1.1462311091
 C          3.5874180695       -0.4089811678       -1.1348041243
 C          0.7144787198        1.2144651149        0.0050244267
 C          1.3898895074        2.4628613860       -0.0284106600
 C          0.7033131322        3.6375046370       -0.0097161409
 C         -0.7047033509        3.6370845408        0.0489336570
 C         -1.3908045602        2.4620736774        0.0610511711
 C         -0.7151058284        1.2139703208        0.0193017722
 C         -3.6074752416       -0.4317702153        1.1102567508
 C         -4.9903507330       -0.4264097812        1.0976568666
 H         -6.7543288303        0.0091276023       -0.0350497018
 H         -5.4980733546        0.7724321024       -2.0180383609
 H         -3.0334467104        0.7651484256       -1.9941591173
 H         -2.4682593087       -2.4685656044       -0.0745345607
 H         -1.2298094855       -4.5834593844       -0.0436816405
 H          1.2356568830       -4.5816690044        0.0661409652
 H          2.4706792351       -2.4639438326        0.0924736443
 H          3.0668877504        0.7257383745        2.0020577746
 H          5.5327085195        0.7301600505        1.9837256268
 H          6.7538065341        0.0088771037       -0.0350802453
 H          5.5011339752       -0.7208246645       -2.0323374442
 H          3.0357347095       -0.7266883271       -2.0082410008
 H          2.4687475070        2.4637411325       -0.0718755539
 H          1.2316682467        4.5793060789       -0.0367308480
 H         -1.2334796368        4.5785025220        0.0800189115
 H         -2.4695913127        2.4621037628        0.1055806345
 H         -3.0711732952       -0.7646086462        1.9875519972
 H         -5.5365597230       -0.7576968835        1.9686275423
  44
        -64.83622425
 C         -5.6745980347       -0.0032726163       -0.0736528012
 C         -4.9534512801        0.3581313610       -1.1992211129
 C         -3.5707159220        0.3626056735       -1.1663801916
 C         -2.8921676824        0.0000151044       -0.0071604309
 C         -1.4136565897       -0.0004303960        0.0205229412
 C         -0.7161389854       -1.2159549091        0.0524201823
 C         -1.3878142901       -2.4667311418        0.0587710111
 C         -0.6963501479       -3.6383523819        0.0937091979
 C          0.7131387246       -3.6346507214        0.1170860712
 C          1.3959279263       -2.4582038574        0.0938355304
 C          0.7134361323       -1.2138937774        0.0572879580
 C          1.4083413539        0.0007555061        0.0203273286
 C          2.8895030323        0.0006760005       -0.0070410929
 C          3.6200941016        0.0299634814        1.1753164669
 C          5.0031836446        0.0296586299        1.1417658963
 C          5.6694514395        0.0003917798       -0.0717637396
 C          4.9477101602       -0.0291932993       -1.2532279460
 C          3.5648340746       -0.0291051199       -1.2221155346
 C          0.7126521623        1.2153218572       -0.0001643297
 C          1.3936498300        2.4608447380       -0.0207932438
 C          0.7092467853        3.6366383201       -0.0222521034
 C         -0.7003005214        3.6383637413        0.0010373370
 C         -1.3903280335        2.4655018597        0.0145546738
 C         -0.7167310447        1.2157372278        0.0052001331
 C         -3.6238742085       -0.3627614964        1.1188091174
 C         -5.0067964942       -0.3616741163        1.0853122409
 H         -6.7541950356       -0.0056337409       -0.0999220891
 H         -5.4697631937        0.6362596154       -2.1066132064
 H         -3.0053031429        0.6409087774       -2.0444641228
 H         -2.4672550696       -2.4717684706        0.0333319835
 H         -1.2223932993       -4.5819650426        0.0992302483
 H          1.2441848108       -4.5747995173        0.1468482673
 H          2.4760096116       -2.4500568441        0.1036879417
 H          3.0963679807        0.0532509016        2.1202797460
 H          5.5627008817        0.0526741408        2.0655204327
 H          6.7490550668        0.0005793156       -0.0969932104
 H          5.4635778621       -0.0515016685       -2.2020743474
 H          2.9975586056       -0.0504386853       -2.1416390243
 H          2.4737188601        2.4542482144       -0.0294639456
 H          1.2391686562        4.5778059140       -0.0340530995
 H         -1.2271826382        4.5813120804        0.0122293593
 H         -2.4698856681        2.4682844732        0.0402573302
 H         -3.1003677602       -0.6403994802        2.0225649643
 H         -5.5650972535       -0.6433053557        1.9660921008
  44
        -64.83596203
 C         -5.6585762780        0.0079953295        0.2761616950
 C         -5.0709799147        0.3675981954       -0.9251693801
 C         -3.6933253587        0.3662215444       -1.0548652529
 C         -2.8866941941        0.0020375141        0.0181566901
 C         -1.4121179955        0.0033532467       -0.0861277855
 C         -0.7155367520       -1.2129865406       -0.0552693599
 C         -1.3938888459       -2.4601191340       -0.0465154839
 C         -0.7089059416       -3.6358419829       -0.0297464463
 C          0.7003019778       -3.6374539945       -0.0287568479
 C          1.3883832659       -2.4634883723       -0.0447385576
 C          0.7134854930       -1.2144614124       -0.0543576887
 C          1.4126777067        0.0006408602       -0.0852165005
 C          2.8870113546       -0.0037118784        0.0190477344
 C          3.4865635087       -0.3850490528        1.2163013094
 C          4.8632439326       -0.3834653757        1.3439820085
 C          5.6592751681       -0.0034448835        0.2761935209
 C          5.0715498714        0.3720280167       -0.9201872612
 C          3.6938947264        0.3728787333       -1.0496235562
 C          0.7166137791        1.2148919225       -0.1721759630
 C          1.3926457201        2.4624810238       -0.2241442499
 C          0.7072889046        3.6356291458       -0.2981163280
 C         -0.7017928861        3.6366690395       -0.2990381262
 C         -1.3885674275        2.4643742371       -0.2254725379
 C         -0.7138405841        1.2161329204       -0.1724171411
 C         -3.4859653758       -0.3641069322        1.2201837677
 C         -4.8625870264       -0.3591224134        1.3484572318
 H         -6.7337679579        0.0139393812        0.3770565818
 H         -5.6887235535        0.6517426255       -1.7647113465
 H         -3.2342354709        0.6421286210       -1.9936346338
 H         -2.4735095915       -2.4586723663       -0.0670681654
 H         -1.2392089495       -4.5768774808       -0.0284857795
 H          1.2283901865       -4.5797507037       -0.0264493434
 H          2.4679861357       -2.4654321315       -0.0641731275
 H          2.8619762353       -0.6781297739        2.0482087720
 H          5.3159190430       -0.6778600289        2.2796713725
 H          6.7345296845       -0.0004799629        0.3765312782
 H          5.6891808354        0.6662153867       -1.7563370513
 H          3.2348326160        0.6633200042       -1.9840183644
 H          2.4719686646        2.4648407665       -0.2048597732
 H          1.2374690030        4.5754735996       -0.3471873386
 H         -1.2306012021        4.5772949240       -0.3477220184
 H         -2.4679111863        2.4675092375       -0.2054095091
 H         -2.8611543640       -0.6448784816        2.0561568299
 H         -5.3150089154       -0.6365675607        2.2894015864
  44
        -64.83577047
 C         -5.6527976962       -0.0130366308       -0.3392036090
 C         -4.8376695669       -0.4928746877       -1.3508967302
 C         -3.4642690884       -0.4919085497       -1.1936012678
 C         -2.8859090993       -0.0073559232       -0.0231065739
 C         -1.4140381269        0.0016398624        0.1035877316
 C         -0.7157376650       -1.2145484083        0.1383998722
 C         -1.3929512966       -2.4607049257        0.2030126476
 C         -0.7085375202       -3.6368572667        0.2124442263
 C          0.6991322549       -3.6408141931        0.1457246232
 C          1.3872306133       -2.4677559531        0.1004022330
 C          0.7137213997       -1.2180771236        0.1203940406
 C          1.4106406584       -0.0024325010        0.1026039597
 C          2.8839367180        0.0066415799       -0.0243014549
 C          3.7112574207       -0.3866293028        1.0218851833
 C          5.0863379056       -0.3778969671        0.8662340084
 C          5.6496783821        0.0184210746       -0.3351080656
 C          4.8323284295        0.4125502986       -1.3814826024
 C          3.4585185531        0.4096921033       -1.2264425101
 C          0.7137681860        1.2125599363        0.1545520773
 C          1.3967122257        2.4549441308        0.2301949469
 C          0.7167813999        3.6330739858        0.2589845969
 C         -0.6908584337        3.6408623416        0.1922570200
 C         -1.3832126013        2.4709575138        0.1285984219
 C         -0.7158669794        1.2177085041        0.1376551729
 C         -3.7123206136        0.4677455853        0.9900016089
 C         -5.0869840427        0.4636523294        0.8313219708
 H         -6.7256460296       -0.0120606554       -0.4626389952
 H         -5.2728850864       -0.8682311378       -2.2655856077
 H         -2.8247422686       -0.8600022142       -1.9833103210
 H         -2.4714350770       -2.4583762177        0.2564305105
 H         -1.2384687007       -4.5763713595        0.2696502108
 H          1.2258789847       -4.5838089115        0.1370696255
 H          2.4659341094       -2.4702435802        0.0547530171
 H          3.2707554992       -0.6939847091        1.9597547884
 H          5.7210838691       -0.6830411458        1.6854242708
 H          6.7228335673        0.0210069736       -0.4560595107
 H          5.2660578435        0.7232719275       -2.3208517187
 H          2.8166327796        0.7154532783       -2.0404080943
 H          2.4756296421        2.4455228709        0.2759415319
 H          1.2492406881        4.5704158975        0.3267672894
 H         -1.2151266207        4.5853272038        0.1941965590
 H         -2.4612028954        2.4814376394        0.0741859446
 H         -3.2716900386        0.8334074614        1.9066148261
 H         -5.7196402616        0.8355577421        1.6241054636
  44
        -64.83545222
 C         -5.6384151112       -0.0134616921       -0.4178674788
 C         -4.7942569982       -0.4418098821       -1.4289459186
 C         -3.4255926238       -0.4421242632       -1.2345148795
 C         -2.8819548883       -0.0095502681       -0.0276748724
 C         -1.4121899388        0.0008668661        0.1293463436
 C         -0.7136401898       -1.2140918308        0.1746282337
 C         -1.3935080193       -2.4585372116        0.2423609696
 C         -0.7105833386       -3.6351787662        0.2679211736
 C          0.6974776449       -3.6402100589        0.2093216439
 C          1.3873530287       -2.4685315251        0.1528186275
 C          0.7159022537       -1.2176567959        0.1596844479
 C          1.4117275475       -0.0010692791        0.1273930605
 C          2.8817142057        0.0098412923       -0.0288415251
 C          3.7351110597       -0.4106495599        0.9854114472
 C          5.1055523345       -0.4057947065        0.7920874183
 C          5.6384984441        0.0149785291       -0.4147480631
 C          4.7954907073        0.4392590322       -1.4284291863
 C          3.4265768131        0.4393226617       -1.2360373891
 C          0.7133591293        1.2135546125        0.1799966420
 C          1.3937759082        2.4574117138        0.2523806272
 C          0.7112573172        3.6340845235        0.2856027643
 C         -0.6969004243        3.6396450689        0.2296186772
 C         -1.3871959220        2.4684615545        0.1676845123
 C         -0.7162377033        1.2173016598        0.1675141412
 C         -3.7366282843        0.4141201703        0.9841912963
 C         -5.1068324330        0.4097777700        0.7887529778
 H         -6.7075339243       -0.0107603193       -0.5702569847
 H         -5.2027737335       -0.7756482959       -2.3717515015
 H         -2.7625764877       -0.7718194795       -2.0218082773
 H         -2.4724997887       -2.4526982551        0.2868092489
 H         -1.2413224537       -4.5738931716        0.3304265199
 H          1.2236300688       -4.5836006317        0.2130557477
 H          2.4660146942       -2.4742293312        0.1094957207
 H          3.3192119867       -0.7350630303        1.9287629529
 H          5.7606224491       -0.7334059671        1.5862368526
 H          6.7078568202        0.0131835492       -0.5653763460
 H          5.2051103933        0.7697891776       -2.3718620398
 H          2.7645418810        0.7671128713       -2.0249296918
 H          2.4728514335        2.4508110841        0.2945577041
 H          1.2422966384        4.5723360756        0.3521958389
 H         -1.2229057797        4.5830686940        0.2403751943
 H         -2.4659246755        2.4749809501        0.1262113246
 H         -3.3220474476        0.7413703675        1.9272013084
 H         -5.7628900020        0.7389469443        1.5814702089
  44
        -64.83533688
 C         -5.6364052784        0.0029778750        0.4279836612
 C         -5.1115459464       -0.3362504547       -0.8078043237
 C         -3.7419701620       -0.3367774101       -1.0077972222
 C         -2.8813459845        0.0056098644        0.0292464768
 C         -1.4117857737        0.0002949318       -0.1326363594
 C         -0.7173483154       -1.2131442313       -0.2369015416
 C         -1.3949749733       -2.4587906776       -0.3074616922
 C         -0.7107796121       -3.6313442232       -0.3993450401
 C          0.6983656547       -3.6338661807       -0.3974772070
 C          1.3865766320       -2.4637721213       -0.3041192659
 C          0.7133334435       -1.2156409788       -0.2355391044
 C          1.4118190935       -0.0044630510       -0.1314267009
 C          2.8813319514       -0.0035729355        0.0305118673
 C          3.4195202947        0.3467215401        1.2660362255
 C          4.7875809305        0.3390005861        1.4642536168
 C          5.6364786681       -0.0140236665        0.4284304907
 C          5.1101446802       -0.3559478188       -0.8059589912
 C          3.7405487700       -0.3525446541       -1.0055421132
 C          0.7163591084        1.2127369321       -0.1148281251
 C          1.3956328262        2.4591375152       -0.1151595751
 C          0.7106940484        3.6351342485       -0.1148387469
 C         -0.6985813608        3.6374969792       -0.1138959667
 C         -1.3874104533        2.4638111520       -0.1140364245
 C         -0.7122571214        1.2151438637       -0.1148482910
 C         -3.4179477636        0.3528251563        1.2663433840
 C         -4.7859986741        0.3490439884        1.4649689992
 H         -6.7050968065       -0.0020004803        0.5832439189
 H         -5.7724802360       -0.6020022399       -1.6200375077
 H         -3.3327773278       -0.5958989519       -1.9740095931
 H         -2.4744066557       -2.4592080708       -0.2919611443
 H         -1.2417470820       -4.5696988496       -0.4653539267
 H          1.2261018618       -4.5743018614       -0.4600655853
 H          2.4659282181       -2.4682343393       -0.2847799587
 H          2.7528425654        0.6190162064        2.0719413301
 H          5.1918062714        0.6074789711        2.4294402683
 H          6.7051962337       -0.0222056134        0.5834548036
 H          5.7698451380       -0.6283145156       -1.6169804287
 H          3.3300646705       -0.6156696700       -1.9701612795
 H          2.4754066089        2.4562589470       -0.1335732401
 H          1.2412118081        4.5760435227       -0.1243645428
 H         -1.2259405347        4.5801665340       -0.1231647804
 H         -2.4671786138        2.4644685374       -0.1322991217
 H         -2.7501195393        0.6204316234        2.0728423945
 H         -5.1890698639        0.6160984033        2.4310665536
  44
        -64.83523385
 C         -5.6326607440       -0.0128638426       -0.4518735556
 C         -4.7796387310       -0.4886183491       -1.4339349869
 C         -3.4135978900       -0.4900742061       -1.2231754553
 C         -2.8802274062       -0.0123376464       -0.0284782023
 C         -1.4128466097        0.0011372258        0.1424970269
 C         -0.7108109250       -1.2124877637        0.1879792385
 C         -1.3859808060       -2.4601254895        0.2439574808
 C         -0.6992776347       -3.6348894340        0.2619079682
 C          0.7090061884       -3.6351371952        0.2134300528
 C          1.3947901603       -2.4604317725        0.1722774216
 C          0.7187645378       -1.2121449776        0.1813707563
 C          1.4114230956        0.0064216504        0.1545397092
 C          2.8797054936        0.0168841102       -0.0178641655
 C          3.7497695716       -0.4006894036        0.9829766740
 C          5.1160284637       -0.4103480679        0.7609019187
 C          5.6276482967       -0.0072084483       -0.4610808486
 C          4.7679505713        0.4179845720       -1.4603259008
 C          3.4036026755        0.4328095619       -1.2392086914
 C          0.7100101582        1.2188329805        0.2079034232
 C          1.3891745238        2.4633275327        0.2827999322
 C          0.7057331210        3.6395498196        0.3094701524
 C         -0.7019134188        3.6428413185        0.2424759762
 C         -1.3907194726        2.4707844185        0.1789602211
 C         -0.7196094525        1.2196581861        0.1878767435
 C         -3.7445818260        0.4556090524        0.9556970984
 C         -5.1121599322        0.4542737985        0.7433021174
 H         -6.6997827770       -0.0079602722       -0.6176161413
 H         -5.1790304060       -0.8570338436       -2.3676817796
 H         -2.7440151794       -0.8551723215       -1.9890136521
 H         -2.4650756407       -2.4597906355        0.2838106888
 H         -1.2275969854       -4.5757487321        0.3111151882
 H          1.2388242515       -4.5764691782        0.2148830703
 H          2.4738328878       -2.4620018819        0.1397288414
 H          3.3510525954       -0.7135729162        1.9376292790
 H          5.7846558858       -0.7369725933        1.5441386166
 H          6.6934371709       -0.0231038141       -0.6347903343
 H          5.1608176677        0.7383309746       -2.4143360674
 H          2.7278617597        0.7615814978       -2.0159892633
 H          2.4680617572        2.4566413567        0.3309871048
 H          1.2349966639        4.5787291769        0.3768138624
 H         -1.2293645328        4.5855464870        0.2443277744
 H         -2.4688053151        2.4783200237        0.1263371216
 H         -3.3400383028        0.8139526517        1.8917085575
 H         -5.7748506708        0.8218637853        1.5132793047
