66
 energy: -107.575986515939 gnorm: 0.000127054164 xtb: 6.7.1 (edcfbbe)
C            0.60410196389949       -0.04084573800258        0.01744247486049
C           -0.60420665029176       -0.04186803111819        0.01692013560651
C           -2.01333787377713       -0.03680472479790        0.01380292405498
C           -2.71531923634896       -0.01541626595182       -1.19442586230246
C           -4.09388024778275       -0.00686287424165       -1.19703815589646
C           -4.79760764898748       -0.01434217622772        0.00512582290852
N           -6.20901011126587        0.00190701513477       -0.00025887837518
C           -6.93395992151701       -1.07897920447143        0.50512652350290
C           -6.31689575407291       -2.22662558078099        0.98639152803524
C           -7.06762709235749       -3.28328423925131        1.47962308765186
C           -8.44553324271949       -3.21514660660903        1.49052765944149
C           -9.07792285540798       -2.08786905899853        0.98624991261233
C           -8.33464525009506       -1.03294401483920        0.49176085926818
O           -9.03199777086664        0.03448392995911       -0.01806345768317
C           -8.30398368518233        1.08673242735404       -0.51636421610102
C           -9.01641819026240        2.15959309124636       -1.01773301730066
C           -8.35183450290278        3.27302441243911       -1.51130508670275
C           -6.97295184506287        3.30939491052458       -1.48257430864231
C           -6.25316624711940        2.23466427659379       -0.98237746346257
C           -6.90258677931898        1.10039022549803       -0.51199471003924
C           -4.10172581321188       -0.03555869694093        1.21160939732324
C           -2.72308247547004       -0.04941822457277        1.21751777029342
C            2.01322662636465       -0.03590706294124        0.01511755568325
C            2.71636495236564       -0.05015852712444       -1.19252790688956
C            4.09491916318555       -0.03803613138026       -1.19423761425552
C            4.79755404306848       -0.01699947926112        0.00837336272159
N            6.20898367187133       -0.00509460593023        0.00483476455263
C            6.91034873023536        1.09186636714759        0.50905799753187
C            6.26866968282219        2.22691153547213        0.98808280453222
C            6.99635233158118        3.30020853353570        1.47991324932322
C            8.37543296187184        3.26169425202512        1.49149798787793
C            9.03203917233724        2.14732569373597        0.98948076480724
C            8.31171783666056        1.07581447613856        0.49666721724281
O            9.03212085358534        0.02242076898058       -0.01033342677016
C            8.32706285063984       -1.04448252530469       -0.51041808440223
C            9.06260644241571       -2.10147045090518       -1.01202061781464
C            8.42228352314005       -3.22821263144289       -1.50745438338483
C            7.04442628399081       -3.29375282364284       -1.48050269582446
C            6.30146061848632       -2.23501917567285       -0.98006966887616
C            6.92622748973982       -1.08787666300247       -0.50758361942809
C            4.10049171958179       -0.00700572062691        1.21435894376834
C            2.72184010867549       -0.01370783481435        1.21936695673640
H           -2.16824773089821       -0.01145532465596       -2.12557750935954
H           -4.63883786186118        0.00335087183682       -2.12968423923945
H           -5.24072232960880       -2.29987518212261        0.96902388987117
H           -6.56089694230312       -4.16060193262502        1.85143857065458
H           -9.03416338804643       -4.03220146783764        1.87675666806959
H          -10.15311220851873       -2.00987060826276        0.96283675886454
H          -10.09335481732882        2.10634164251252       -1.00831703561848
H           -8.91646459327049        4.10426982585914       -1.90307048468398
H           -6.44132612996196        4.17557315797555       -1.84566430264381
H           -5.17589267219585        2.28315974521376       -0.95126229573739
H           -4.65241048178176       -0.03644962222166        2.14091974011805
H           -2.18205945566511       -0.06200075900905        2.15212404139308
H            2.17011060120668       -0.06285674785507       -2.12407493075331
H            4.64048249851630       -0.04079735798884       -2.12656225059607
H            5.19118666856250        2.27730480233352        0.97019508817010
H            6.47064923601895        4.16698887854972        1.85016297776792
H            8.94623777347796        4.09187775188719        1.87653984963120
H           10.10869347384939        2.09229078995238        0.96662898718445
H           10.13815789390565       -2.02545792538587       -1.00124032732883
H            9.00489053943466       -4.04692674610472       -1.89929233516491
H            6.53169529387147       -4.17051087312750       -1.84539465561938
H            5.22539966894207       -2.30620248783572       -0.95028739912754
H            4.65051015603596        0.00314167396758        2.14399029750654
H            2.18001043711509       -0.00831832315917        2.15357080751359
