137
 energy: -208.178201176304 gnorm: 0.000170711712 xtb: 6.7.1 (edcfbbe)
C          -11.39011656795511       -4.49666367079736       -2.77393021636007
C          -11.35532989452998       -4.40452117045705       -1.24056888477288
C          -10.70385824009155       -5.66857607853723       -0.65891216937317
C          -12.79879163070815       -4.33058967936143       -0.73353774749923
C          -10.52861055183048       -3.19689227312927       -0.83413670948702
C           -9.19564903139987       -3.10599185042998       -1.23859164243159
C           -8.40197939397376       -2.03396198309654       -0.89345359401108
C           -8.91997262612457       -0.99771134806809       -0.11398986128068
N           -8.12579657069388        0.09740823293690        0.24124245423073
C           -6.77954215793281       -0.08389419007204        0.53442670997338
C           -6.34023477347969       -1.25311449707440        1.16523128908319
C           -5.00282769151291       -1.44569991987712        1.42691811346664
C           -4.05529514005926       -0.48051644662823        1.07726283171922
C           -2.63083812405377       -0.69402207072425        1.33717679963190
C           -1.84976951412929        0.31396516455868        1.85316706037449
C           -0.47593485094278        0.14868167348727        2.11710584781273
C            0.11913005701227       -1.18329414072592        1.90473545833316
C           -0.68407790416590       -2.17433691453706        1.31452764335233
C           -2.02053549018205       -1.94885865342469        1.03678069396512
C           -2.74507966298555       -2.96504251775874        0.38933113850252
N           -3.29789708680970       -3.80826617353905       -0.16542323206972
N            1.34385007788592       -1.42409282834964        2.28042514193433
C            2.05434113690713       -0.44728152887445        3.02822347493829
C            3.53549001412022       -0.64834607830013        2.89978568424066
C            4.26592722515142       -1.33928081258283        3.85506974361686
C            5.62671183705383       -1.50702227739524        3.66354597992930
C            6.20233606357673       -0.98337874078095        2.51239385032244
P            8.00815674767794       -1.15739297000171        2.28990204285109
O            8.64066219660469       -1.85874361861865        3.42251927634141
C            8.61624520729350        0.54256037047021        2.06199251068434
C            9.76736890164578        0.89745575305746        2.75304392225016
C           10.29534111934652        2.16825994427154        2.60733946375572
C            9.67102371112382        3.08160651913726        1.77267769137494
C            8.52000931274223        2.72601523149715        1.08599763357874
C            7.99047583618877        1.45526031876827        1.22270172025723
C            8.24499483878488       -1.99331079989230        0.69247474705991
C            9.33210113451169       -2.85117012204656        0.58650714336871
C            9.59349022950742       -3.48506040314686       -0.61553320552946
C            8.77243545274147       -3.25635970626516       -1.70843020341144
C            7.68497782168529       -2.40304561067174       -1.59949278886779
C            7.41656288481382       -1.77057195688215       -0.39869091535543
N            5.51058531203008       -0.33144688018191        1.58925598831315
C            4.20778015450172       -0.16042462399362        1.77194917891624
C            3.45270647862450        0.60042853650219        0.76865826903157
N            3.95509554875322        0.71143510509017       -0.45499365493971
C            3.27830731455272        1.40162941285587       -1.36091062109498
P            3.90770249461614        1.50500036056374       -3.07537849913820
O            3.04575015997805        2.36049438314140       -3.91243156457535
C            5.62163127364697        2.09626603625512       -2.96810364050283
C            5.93783736914192        3.27797814156468       -3.62439949540018
C            7.23821591929816        3.75121108625046       -3.59820057388688
C            8.21738259640901        3.03981056043773       -2.92286401209602
C            7.89912490828710        1.85856679967294       -2.26932799445463
C            6.60052959769304        1.38402598778760       -2.28891007107368
C            3.99445023758426       -0.21884230814109       -3.65737231638340
C            4.26661435321401       -1.29687828565662       -2.82590230583617
C            4.31643715739941       -2.57386415775097       -3.35818785815629
C            4.10456918482526       -2.77433434609317       -4.71336561456992
C            3.83401528955336       -1.69740107842505       -5.54286607999931
C            3.77745248982065       -0.41996907540800       -5.01490714463555
C            2.07775367647778        2.04310373785370       -1.08266060342512
C            1.54999602243692        1.93112464036369        0.19081753798755
C            2.23327139671756        1.18530199042023        1.13972107905707
C            1.67264022598415        0.98320982394248        2.52911579586182
N            0.26441744219273        1.13098495991314        2.55089370567949
C           -4.50194919032760        0.69927548985255        0.47630230816098
C           -5.83634803626424        0.89498537326728        0.20188089342382
C           -8.69168891618326        1.37570730354526        0.28361094319035
C           -8.31522406516720        2.29118788572227        1.26536800350178
C           -8.87802039276733        3.55207304848752        1.30230888045081
C           -9.83383771284710        3.95087619673732        0.37192420717942
C          -10.47282211180817        5.32895750061001        0.37748991600774
C          -10.16201365096681        6.02720736532085       -0.95559266252509
C           -9.95521251574225        6.21556411386649        1.51404835832837
C          -11.99261265758022        5.17545167901804        0.54157503588594
C          -10.20406833166976        3.02287406782601       -0.60279209906835
C           -9.65125822868056        1.76177558127247       -0.65384906072263
C          -10.24994785232609       -1.07521986083141        0.29691483268997
C          -11.03319654080968       -2.15521173394272       -0.06038171296554
H          -10.39436394021467       -4.62591035941205       -3.18854586049175
H          -11.99764647053945       -5.34513914749755       -3.08106522523955
H          -11.82241759726849       -3.59181452840245       -3.19664293594020
H           -9.69260970222917       -5.80318381097478       -1.03293510013634
H          -11.28661736502064       -6.54625724233053       -0.92985197616297
H          -10.66040930742233       -5.60563515696656        0.42677487795283
H          -13.31047777881371       -3.45774011860049       -1.13256089144138
H          -13.34134830153743       -5.21524783680623       -1.06052054880678
H          -12.83269138946009       -4.30129328985550        0.35315010972191
H           -8.75943711823363       -3.88436820567640       -1.84501362000299
H           -7.37845980808634       -1.98670687033145       -1.23555490842768
H           -7.05915222553066       -2.00259177789052        1.45964506738080
H           -4.68722217249470       -2.34525794636504        1.93391330915615
H           -2.27379795919396        1.28707513566784        2.05063525963422
H           -0.23532860832328       -3.13523513284936        1.10964623751375
H            1.76728609525066       -0.53221134859889        4.09194147615061
H            3.77518537415384       -1.73461657194992        4.73319185939437
H            6.25081168496563       -2.02530665643203        4.37566340831051
H           10.22974431777091        0.16833102879453        3.40407407946562
H           11.19043692261553        2.44511167625216        3.14477829913121
H           10.08062574315166        4.07443005184066        1.65867854374141
H            8.03258436740994        3.43869641956953        0.43701894764944
H            7.09068748793791        1.17216723509898        0.69911278987491
H            9.95348861624752       -3.01731469844770        1.45567909648750
H           10.43654830388555       -4.15504179167165       -0.69936775884901
H            8.97769834942677       -3.74740864288848       -2.64817587329437
H            7.04476604448539       -2.23018316986794       -2.45202803375197
H            6.56450937878035       -1.11759085823205       -0.28473270496977
H            5.15568166247370        3.80854388097572       -4.14962104196088
H            7.48687850750631        4.67118259935726       -4.10673441828220
H            9.23312775890239        3.40652827441829       -2.90434311509720
H            8.66376033386098        1.30749384695042       -1.74253995831763
H            6.33463365673274        0.47141436797397       -1.78218731248057
H            4.42118713528464       -1.13412081498282       -1.76932450876826
H            4.51999297063050       -3.41467841417667       -2.71093036300951
H            4.14573491477063       -3.77301600757111       -5.12237414570815
H            3.66483900299351       -1.85301851221267       -6.59811070567037
H            3.55444161304231        0.43493727184558       -5.63835758648776
H            1.58573607626162        2.60256730567743       -1.86358875433473
H            0.61491012651319        2.40368578469740        0.45649458926623
H            2.11590901763979        1.72319891931601        3.21197927584021
H           -3.78214779762055        1.44917399033343        0.18442542663932
H           -6.15815476553726        1.79595268280507       -0.29844992145666
H           -7.58825527700688        2.00320949722362        2.01057020020573
H           -8.56052236098132        4.22228970667339        2.08363955513287
H          -10.59230757706850        7.02629826546682       -0.96128980145119
H          -10.57071017264614        5.47677869515747       -1.79833304108820
H           -9.08609712083999        6.11522817255949       -1.09389452565658
H          -10.44806142178171        7.18456960091887        1.46871859029302
H          -10.17142956654877        5.77613337312049        2.48523197296018
H           -8.88385209524376        6.38140268991050        1.42620770707318
H          -12.42632607113830        4.60650054737517       -0.27599842436665
H          -12.46503095973150        6.15515013718821        0.56184592142280
H          -12.22136822032942        4.66356402008969        1.47433383809334
H          -10.93516306044297        3.28819259700544       -1.35042346804815
H           -9.94580460887951        1.07106112519869       -1.42993821829695
H          -10.66337081789090       -0.28977690348182        0.91223294436154
H          -12.05254067627496       -2.17555855035813        0.28727969562866
