137
 energy: -208.178226989643 gnorm: 0.000035230213 xtb: 6.7.1 (edcfbbe)
C          -11.79650591062817       -4.64634515874281       -2.03129067005774
C          -11.66798357651311       -4.37575931322348       -0.52435580752491
C          -11.00322739263171       -5.57754325304152        0.16446614127589
C          -13.07688733757397       -4.20982981944421        0.05318813996762
C          -10.79921809503717       -3.14779841125609       -0.31366563201699
C           -9.48706736760975       -3.14140205580511       -0.79012606942683
C           -8.65639478159438       -2.05548877876801       -0.61943328356672
C           -9.11436979559541       -0.91763664946524        0.04782022421721
N           -8.28145739011564        0.19149020999449        0.22865623177716
C           -6.92811591057348        0.01368374573128        0.48806000303634
C           -6.48459242373800       -1.08495530064781        1.23256304648096
C           -5.14163876659135       -1.27472451009800        1.46631665668516
C           -4.19199654972830       -0.37509425478296        0.97605876946466
C           -2.76441747195689       -0.58084388639771        1.22567245700069
C           -1.96009850981794        0.46625645283710        1.61028338577768
C           -0.58746830149983        0.30644955770402        1.88601187362350
C           -0.01995820221745       -1.05332730905622        1.83341038428159
C           -0.84353695122800       -2.08915117114839        1.35950334153713
C           -2.17801226180698       -1.87252575570181        1.06545922687999
C           -2.92782372611786       -2.94151454394184        0.54428187207806
N           -3.50474337114078       -3.83011416267950        0.09482566619463
N            1.19932261575724       -1.27285051780517        2.23953423755117
C            1.91781378732796       -0.23212221416433        2.88668778472966
C            3.39758641693921       -0.47741945281053        2.82614913958651
C            4.06410964093735       -1.12700133324552        3.85434839948502
C            5.42680768728526       -1.33640146980618        3.73761643306159
C            6.07207799864128       -0.88381585890439        2.59278070730549
P            7.88539659877007       -1.11435170288249        2.50437003400798
O            8.38344055653350       -1.89047314292589        3.65528737072016
C            8.57180083078323        0.57051624291172        2.41806620964630
C            9.81802077991836        0.75896700322509        3.00235678419295
C           10.41395765252161        2.00723219190608        2.97380014621960
C            9.76292121021772        3.06776384406224        2.36357823018603
C            8.51693109312275        2.88068745256938        1.78540646451676
C            7.91876203119346        1.63241169351743        1.80662225528195
C            8.23656998461714       -1.89615265973037        0.90278504097490
C            8.79603868530627       -3.16665963180354        0.91845555558490
C            9.11229895048247       -3.79293777913988       -0.27456964478758
C            8.87381248280422       -3.14632599046330       -1.47703360844303
C            8.31596346460106       -1.87665526681770       -1.48994682489045
C            7.99438023076394       -1.24846691705060       -0.30081648747455
N            5.44365420144392       -0.27608278444307        1.59712902705061
C            4.13431637178205       -0.07825462705923        1.70337455108764
C            3.43189148688898        0.59437502381941        0.60378337343764
N            4.00275189307781        0.60094278526516       -0.59265829511789
C            3.36716952284762        1.17027554931129       -1.60533456613654
P            4.13518038517152        1.10801342937711       -3.26149418420180
O            3.27927361162960        1.72556084812621       -4.29182260371033
C            5.76431955557485        1.89960877895313       -3.09818306265660
C            6.23704200241991        2.59536087365415       -4.20343587531962
C            7.48996574387146        3.18135225080802       -4.16404193324606
C            8.26883773590830        3.06630197840667       -3.02346156812419
C            7.79394597260437        2.37446303433211       -1.91957697617523
C            6.54042151466871        1.78948221051447       -1.95256865238513
C            4.47204978876509       -0.65493434848291       -3.55957807304132
C            5.04922361682888       -1.47839003514183       -2.60158015553377
C            5.29598070240452       -2.80501174211328       -2.90657744517156
C            4.98157833396920       -3.30442175821306       -4.16135549533697
C            4.40973547589642       -2.47965472244932       -5.11708045273841
C            4.15290228338141       -1.15378190861135       -4.81574695588056
C            2.12718931822466        1.78148928848911       -1.47037853724493
C            1.53277736207121        1.79365947810648       -0.22067262121733
C            2.18325789462162        1.18581332932448        0.84307103793981
C            1.57576456174731        1.14168053279192        2.22551674958928
N            0.17187628055995        1.31879779650811        2.19887588416230
C           -4.64105893181987        0.73632709953523        0.25829434226946
C           -5.98136988336146        0.92652216246601        0.00946508800483
C           -8.82085484621273        1.47888881180828        0.13688540782517
C           -8.39114246727132        2.49708291020076        0.98659619212285
C           -8.93224933106738        3.76450034203836        0.89262818976164
C           -9.91698837520803        4.06900429770284       -0.04322243195629
C          -10.53371566650445        5.45060732667802       -0.17860372261337
C          -10.26317155136977        5.97977410079900       -1.59556755352247
C           -9.95941696249122        6.45502340108469        0.82497845768548
C          -12.04838585582552        5.34812958011728        0.05727982345368
C          -10.33940964560875        3.03923780516153       -0.88557934552476
C           -9.80921828894613        1.77001960677336       -0.80481106234843
C          -10.42409542953600       -0.90867904238947        0.52561233087048
C          -11.24462578634162       -2.00486140970299        0.34481724312456
H          -10.82848444369667       -4.83700999916184       -2.48602534565475
H          -12.42774115256470       -5.51608484592256       -2.19987906271173
H          -12.24727231303651       -3.79118269570414       -2.53117312303927
H          -10.02098309691368       -5.78242193410612       -0.25232600358963
H          -11.61796068864323       -6.46615937651617        0.03845438998058
H          -10.88847274191859       -5.38620631772645        1.22974260280033
H          -13.59991640819764       -3.38163703686296       -0.41952714109004
H          -13.65053014875712       -5.11600110585770       -0.13039201725960
H          -13.04406989071844       -4.04750609289667        1.12810191734295
H           -9.09715450796238       -3.99995810264792       -1.31439294810823
H           -7.65048458546079       -2.07709716213411       -1.01257483632381
H           -7.20423514552941       -1.77941245820371        1.63879663434048
H           -4.82228340205686       -2.11726477838279        2.06137338535025
H           -2.36482884323661        1.46343388608763        1.69706424880532
H           -0.41330579557763       -3.07522984056263        1.26322834288591
H            1.60520147798342       -0.19045061021134        3.94625846130351
H            3.52279400714557       -1.45751971220789        4.72954296620499
H            6.00262211654780       -1.83041896063801        4.50540189721782
H           10.29936432578399       -0.08142424925890        3.48326848952462
H           11.38288748353162        2.15287224140523        3.42804832852433
H           10.22491071748775        4.04373642545756        2.34296700479944
H            8.00716332693319        3.70984255077485        1.31637969762498
H            6.94462677533409        1.47920739896058        1.36567508814037
H            8.98044492736499       -3.64427228904005        1.87092722457914
H            9.54696574826067       -4.78180805933391       -0.26505786383357
H            9.12319838829793       -3.63275148816133       -2.40856180910451
H            8.12947546948505       -1.37645690262632       -2.42851511893110
H            7.55735047863705       -0.26402523076866       -0.29567037653017
H            5.60699025266424        2.67486566222455       -5.07865529171147
H            7.85797904885735        3.72456278292085       -5.02204727551874
H            9.24868941516171        3.51942685409405       -2.99259324720811
H            8.40374321564728        2.28915686444206       -1.03208008223072
H            6.14398119550086        1.25766484551609       -1.10060355417997
H            5.28455358735832       -1.08357634147849       -1.62543677674756
H            5.73967106374137       -3.44838354419887       -2.16102390134381
H            5.18043653924522       -4.34024500874833       -4.39385452367061
H            4.16273392005577       -2.86833795358613       -6.09411955999234
H            3.69911281155030       -0.49111218498411       -5.53985546793822
H            1.66084682641500        2.22700272812996       -2.33599633342405
H            0.57097074706577        2.26017388514656       -0.06066826451918
H            2.01892719986217        1.94210458096781        2.83715807675407
H           -3.92038006590101        1.43333456685491       -0.14229952682429
H           -6.30621869872700        1.77088105583723       -0.57976257424572
H           -7.64023857939744        2.28557388090453        1.73368226969992
H           -8.57423204446555        4.51655550530547        1.57578348685939
H          -10.68111982537152        6.97803420486520       -1.70571236631756
H          -10.70897288855532        5.33972840425949       -2.35177989043676
H           -9.19202145620759        6.03282103682608       -1.78065465102007
H          -10.43682322788910        7.42213320063726        0.68092165137980
H          -10.14731687366676        6.13882257090236        1.84860410355137
H           -8.88932254611660        6.58641304790884        0.68109821763388
H          -12.52243373961924        4.69892680578364       -0.67350476863601
H          -12.50366543058141        6.33324049974465       -0.01783835664056
H          -12.24920102121264        4.95077295947981        1.05031204830425
H          -11.09476793143953        3.22844229349345       -1.63226143774562
H          -10.14456470815567        0.99689087024721       -1.48014149665502
H          -10.79153653792611       -0.04207836537727        1.05520102935764
H          -12.24537572448352       -1.95579920175590        0.74034674070929
