137
 energy: -208.199509042457 gnorm: 0.000079858019 xtb: 6.7.1 (edcfbbe)
C          -12.28966786069304       -2.64113010963358       -1.42521375678692
C          -11.23027286780245       -3.45217620408961       -0.66379181935589
C          -10.97456450624643       -4.75019494899919       -1.43558823935002
C          -11.76022718392724       -3.82071687281336        0.73028105846778
C           -9.97667498547936       -2.60598030151093       -0.50908934133688
C           -8.73884777041333       -2.98057018640909       -1.02106638794602
C           -7.61938467937755       -2.18482538294226       -0.86236617795439
C           -7.70168436380351       -0.97994273748233       -0.17117816118807
N           -6.57277211928721       -0.15778442719095       -0.00715599145762
C           -5.33865461106545       -0.70193073190861        0.28124179982779
C           -5.23437604517222       -1.91864946737752        0.96998335169667
C           -4.00614902792418       -2.47753514932863        1.22995248783445
C           -2.82592077516696       -1.84083596139648        0.83303967800413
C           -1.51793642478443       -2.42259162703158        1.10950411842840
C           -0.48188403056187       -1.66668699246075        1.56681273702803
C            0.78396607722991       -2.24106864673525        1.89498762953007
C            1.02391559809798       -3.65270172825599        1.53502339274343
C           -0.09482354757439       -4.42989944206991        1.08548687111065
C           -1.30386964591545       -3.84348593697631        0.88049942342007
C           -2.33398639497797       -4.63950512947469        0.32584275574630
N           -3.12041368167498       -5.32658225412619       -0.15032902128257
N            2.19449144701840       -4.18461628994985        1.57567994347862
C            3.29249531748298       -3.31479256926348        1.92340254086607
C            3.85063617587939       -2.66517649495699        0.67497866515245
C            3.67546347038370       -3.22686251908469       -0.58288262752390
C            4.20465733348136       -2.57742748050112       -1.68276674692976
C            4.90480775766856       -1.39322570937974       -1.48031492834642
P            5.45165329527628       -0.49732616514901       -2.98242039026582
O            4.28353354916597       -0.04600951344322       -3.76471564212070
C            6.48294033089316       -1.70503847084982       -3.87155541602089
C            6.34444906271384       -1.77785821573647       -5.25069459770766
C            7.12461027586159       -2.65908676193195       -5.97884092691031
C            8.04414783237845       -3.46522259674439       -5.32725347927817
C            8.18340088263604       -3.39292674079135       -3.94925753014611
C            7.40586169700702       -2.51323005723064       -3.21879078791360
C            6.57217974658587        0.84126204442354       -2.49647207718309
C            6.44401371331606        2.04447179040140       -3.17861955449737
C            7.32826285774246        3.07836739044828       -2.92622861943108
C            8.33822404758400        2.90781503084393       -1.99311258358310
C            8.46337983574173        1.70793832501773       -1.31025684897531
C            7.58642067948723        0.66945577719778       -1.56431512343711
N            5.08860891386391       -0.85542541476151       -0.28902536687779
C            4.57412882705206       -1.46956539080134        0.77291029792950
C            4.77647781488558       -0.85615090610042        2.09015099581661
N            5.73919411436984        0.04706039216624        2.21563352728550
C            5.92052597065546        0.62924295268451        3.39014614119301
P            7.23194429786861        1.89319127120651        3.51464666269393
O            7.33686444441301        2.45998603452415        4.87250523675547
C            8.75397123546111        1.06437438905857        2.96381359034189
C            9.91146332398181        1.31555658668574        3.68847499576267
C           11.10350058503412        0.72244292017434        3.31044625447359
C           11.13499156391714       -0.12136877282261        2.21178325193663
C            9.97638776349531       -0.37395078064289        1.49249072649606
C            8.78255641288544        0.22037941020070        1.86149901978600
C            6.80247502729618        3.12979260545858        2.24898698777479
C            6.21439312662083        2.80538856938254        1.03358451105570
C            5.88619137652292        3.81677559442173        0.14829304284387
C            6.16317686438845        5.13862878191167        0.45972808623697
C            6.76438423010819        5.45875328918783        1.66669970103152
C            7.07783226914222        4.45455167314449        2.56497243543631
C            5.15202772462224        0.33324630747859        4.50933856113452
C            4.15294001247558       -0.61741881952219        4.38732321110175
C            3.95724087059267       -1.23466119993759        3.16039554083701
C            2.86952639214160       -2.24965500638957        2.94752235144432
N            1.65614663075668       -1.56100507003464        2.55836251785117
C           -2.92953716400544       -0.60907437839463        0.17776135246144
C           -4.15508707178158       -0.05598138395730       -0.10540636937852
C           -6.73671230591829        1.23092733014797       -0.15089733401313
C           -6.10905187068350        2.12053939334068        0.71873149749484
C           -6.29303690081423        3.47980626291193        0.57383355868413
C           -7.10681119522025        4.00952723876229       -0.42705040078166
C           -7.27435958917422        5.51644812786420       -0.53923345578392
C           -8.20022867682500        5.92349945915407       -1.68953256018390
C           -5.89837067964860        6.15465602527336       -0.78248063424048
C           -7.87207524496837        6.05316693958940        0.77026215901862
C           -7.73283624256890        3.10927883101813       -1.28277603959541
C           -7.55308496025387        1.74473236177120       -1.15330752912794
C           -8.93609887776076       -0.58997878154276        0.34368598409127
C          -10.04543323383209       -1.39114304353301        0.17212876061956
H          -13.18950381687589       -3.23723203701629       -1.56133153062378
H          -12.55955826530102       -1.73639265812308       -0.88757454764450
H          -11.91281389640427       -2.35658607487597       -2.40575383767719
H          -10.24461270040032       -5.37344156640618       -0.92390602603194
H          -10.62408746543518       -4.54461598873716       -2.44453096614454
H          -11.90198716481239       -5.31442167425636       -1.51168142627499
H          -12.02060152469523       -2.93552158785563        1.30395069009680
H          -12.64960157121682       -4.44070757090479        0.63943681984731
H          -11.00703214100640       -4.37764637083519        1.28437939710842
H           -8.62483121879623       -3.90408941277337       -1.56406417875064
H           -6.67404384695403       -2.49732343999513       -1.28218852386763
H           -6.13017263988201       -2.41343949722468        1.31271737742020
H           -3.95783175067623       -3.39971672135723        1.78988493880495
H           -0.61129522801004       -0.61704840819899        1.77996271307178
H            0.07625750456954       -5.47222446257864        0.85956750521983
H            4.07885524384858       -3.95174506729532        2.35608531945110
H            3.12980455471357       -4.15355455743543       -0.68683599026120
H            4.08516795271571       -2.95979418353515       -2.68670768223323
H            5.61388589546436       -1.14235090457142       -5.73194053641934
H            7.01487109891142       -2.71740725029107       -7.05168211513984
H            8.65356617599833       -4.15367868116925       -5.89363250100528
H            8.89858715808038       -4.02543558131683       -3.44420910136112
H            7.50225307415970       -2.45649826914351       -2.14391459021613
H            5.64264964016328        2.15200091597488       -3.89714159680529
H            7.22948414977790        4.01461016758198       -3.45568344582003
H            9.02933137182654        3.71329043021364       -1.79405824314086
H            9.24644592234597        1.58340507596502       -0.57752322304783
H            7.67207098963354       -0.26729397290196       -1.03712113954611
H            9.85725710000942        1.96908900066541        4.54813442168225
H           12.00492926347071        0.91703937281487        3.87275626303368
H           12.06426206125390       -0.58588217364870        1.91615826553699
H           10.00722517358144       -1.03538743773798        0.63875785887005
H            7.86768624229385        0.03403260002448        1.32069114372027
H            6.00064274982772        1.77492336618662        0.79263696734979
H            5.41118868796722        3.56671162801694       -0.78847680969396
H            5.90550739719458        5.92148610106415       -0.23828623500009
H            6.98033044065488        6.48838726275632        1.91152438716067
H            7.52488433008244        4.68017213268856        3.52347086515781
H            5.35177062399338        0.84701772977105        5.43748311252761
H            3.52899924619654       -0.87820097080735        5.23030896513586
H            2.65488397021295       -2.74302699551042        3.91141732213491
H           -2.02970586830008       -0.11008952628744       -0.15047666564536
H           -4.21101831760122        0.87437842116911       -0.64994034882276
H           -5.48478644175281        1.73928109945788        1.51389028620099
H           -5.79239461732033        4.13697230878654        1.26830698912080
H           -7.80735644527452        5.58790152067408       -2.64663451287750
H           -8.27991829652466        7.00826628412284       -1.72238370910247
H           -9.19996734425922        5.51830704854379       -1.55056521181341
H           -5.99891267895988        7.23366175896825       -0.87898094524782
H           -5.21422102793200        5.94936400686525        0.03628691750511
H           -5.45945445656753        5.76605002671978       -1.69951515142158
H           -7.22084831422775        5.85208262057986        1.61638966220350
H           -8.83674782413486        5.58763165954088        0.96301325723830
H           -8.01636170849987        7.12926184874707        0.70085572728959
H           -8.37163239858095        3.45968210609024       -2.07636805675477
H           -8.04631925653434        1.06853282000748       -1.83625863208350
H           -9.01775674733002        0.34227664571240        0.88326287231317
H          -10.98304728586237       -1.05735225088414        0.58919848866784
