90
 energy: -145.174717850824 gnorm: 0.000050701259 xtb: 6.7.1 (edcfbbe)
N          -10.94031067302855       -1.87851543163116        0.48421726852724
C           -9.91973588180258       -1.35778729566680        0.35080573662668
C           -8.70152768134558       -0.69690926728657        0.18082531640346
N           -7.55797776905286       -1.35435360593025        0.35483172951470
C           -6.43258805387260       -0.71568081250673        0.18732900276534
C           -6.43192423997722        0.72065306057955       -0.19058477401991
N           -7.55672223716553        1.36029474946705       -0.35837061606592
C           -8.70087840548359        0.70383639585195       -0.18465285768278
C           -9.91846400515304        1.36576157366529       -0.35497222890349
N          -10.93855895772047        1.88739204915149       -0.48861311662450
C           -5.07553334593910        1.14033378732622       -0.29545247956460
C           -4.43487508203947        2.33640908731673       -0.60097670809562
C           -3.04861905426619        2.37097578532441       -0.52617331270979
C           -2.26167391307493        1.26713080418218       -0.19328847497428
C           -0.83834231146403        1.47619413546803        0.07951427933311
C           -0.01214361881247        2.17618025837876       -0.80153358064371
C            1.31010918218897        2.41067590440991       -0.49864002603182
C            1.85264061677828        1.97844469447817        0.71871115544134
N            3.18649355254257        2.22684838390633        1.02180620805796
C            3.92157672660038        1.37048213520760        1.84911929527415
C            4.88789172156897        1.89233423855158        2.71247068062255
C            5.63201240615955        1.04924930323214        3.51432173192013
C            5.42671766199010       -0.32138473375198        3.47370019955253
C            4.46470764861893       -0.84388497278744        2.62353140396205
C            3.71645354961130       -0.00995476312968        1.81623192574808
C            3.82352641394825        3.36170550395397        0.49302751242994
C            3.16962023964114        4.59382440654944        0.46580293244346
C            3.80640252585329        5.70296801301097       -0.05722432129586
C            5.09655516121326        5.60125158496712       -0.55489578384210
C            5.75038180862482        4.37901776550002       -0.52621883585406
C            5.12229067106589        3.26323085937065       -0.00719014624799
C            1.01985087238938        1.29880462246560        1.61566264698050
C           -0.29363770992765        1.04771172355892        1.29466001126227
C           -2.88452873616600        0.00098935722160       -0.00112470320716
C           -2.26278700909228       -1.26566294943069        0.19126930197953
C           -0.83950426362396       -1.47586172243846       -0.08093096949521
C           -0.29391084117535       -1.04781541682631       -1.29582981403324
C            1.01955179270803       -1.29987157620070       -1.61619542713818
C            1.85141880123679       -1.98007137176509       -0.71881843694840
N            3.18525513488612       -2.22941389352933       -1.02124641615066
C            3.82116248342648       -3.36477271083509       -0.49218903897856
C            3.16634057601521       -4.59641460193276       -0.46548743358119
C            3.80194895374884       -5.70605196772155        0.05791848958209
C            5.09184357034814       -5.60530641491943        0.55645322403059
C            5.74660069156227       -4.38356005427932        0.52824663597610
C            5.11967241203554       -3.26727826020126        0.00887399793506
C            3.92141535130373       -1.37345638210736       -1.84801078197341
C            4.88798993411294       -1.89583822734119       -2.71074971101559
C            5.63319995937225       -1.05314701865628       -3.51200291233593
C            5.42873819244407        0.31761203378697       -3.47140375188866
C            4.46645916718000        0.84063707625760       -2.62186410687711
C            3.71712957872543        0.00710466054291       -1.81515398794398
C            1.30798921834879       -2.41190182617328        0.49826872129944
C           -0.01424132749016       -2.17644224040465        0.80051984981484
C           -3.05075984280136       -2.36884815214958        0.52390225433121
C           -4.43701007621332       -2.33312199481184        0.59827981706991
C           -5.07657839741538       -1.13651525846172        0.29255249838889
C           -4.28333150942894        0.00157251637289       -0.00134533645620
H           -4.99969608333238        3.22086869340453       -0.85262868770121
H           -2.55028766341004        3.31665158614220       -0.68778143122577
H           -0.40931939056887        2.51075008173581       -1.74817425714938
H            1.93893697614416        2.92487513134094       -1.20968449355701
H            5.04191684266265        2.96013371988907        2.75747383909803
H            6.37166979412919        1.46614068907111        4.18149117008408
H            6.01016986140195       -0.97685307994311        4.10199275325855
H            4.30298769432882       -1.91056817385245        2.58130711497497
H            2.97307716410760       -0.42275466373417        1.15318373698195
H            2.16996655458598        4.67537781208000        0.86655162268130
H            3.29513911804210        6.65397720304843       -0.06862418535657
H            5.58958680878296        6.47094165386977       -0.96186506514536
H            6.75283454645847        4.29196579369343       -0.91771477871066
H            5.62502679506828        2.30780134478602        0.00435856192163
H            1.40590683052413        0.99307394070639        2.57619542473688
H           -0.92966473797771        0.54415654827769        2.00706742926883
H           -0.92921480144306       -0.54378683626586       -2.00854567276242
H            1.40630608422711       -0.99442761806312       -2.57653817308636
H            2.16688793670983       -4.67720045103708       -0.86689380345561
H            3.29000527818906       -6.65669935019453        0.06886451365108
H            5.58397177384401       -6.47538272067545        0.96368884952841
H            6.74884491719550       -4.29726261241911        0.92044289168704
H            5.62311095223968       -2.31221513805818       -0.00227545385297
H            5.04139502810288       -2.96372696201736       -2.75572809660998
H            6.37306739434080       -1.47044401538050       -4.17868534523785
H            6.01303762452747        0.97277266368111       -4.09922943576201
H            4.30535628861441        1.90741408921023       -2.57967014880662
H            2.97353015387919        0.42030847664690       -1.15261033081661
H            1.93609308779988       -2.92657666677696        1.20960827785385
H           -0.41212101994807       -2.51072308216901        1.74696688496412
H           -2.55327345471839       -3.31493871324096        0.68568655953932
H           -5.00264173279470       -3.21710911313583        0.84977008309162
