90
 energy: -145.219020458942 gnorm: 0.000038297825 xtb: 6.7.1 (edcfbbe)
N          -10.93858319023084       -1.81920910901384        0.61315139158217
C           -9.91992854232431       -1.32015486377360        0.43937328885994
C           -8.68595590496074       -0.66859110382621        0.21635248180800
N           -7.55509657250075       -1.35211656220440        0.42946828935668
C           -6.43825327379433       -0.68947124682116        0.21242316068750
C           -6.43731423973706        0.69486442950938       -0.21583375984497
N           -7.55323441321024        1.35877651867069       -0.43377109627236
C           -8.68502932563334        0.67651597509255       -0.22161048991860
C           -9.91808106669067        1.32943274152745       -0.44579831570246
N          -10.93601308158795        1.82959799057979       -0.62062302210836
C           -5.07094811176043        1.12573533782096       -0.33966699964310
C           -4.43890252901987        2.30259308812099       -0.69072950666940
C           -3.04817625183328        2.34869758753241       -0.60752842850336
C           -2.25942902462202        1.26583074723435       -0.22625720548891
C           -0.84380327074143        1.49280626231556        0.06250539149002
C           -0.01526169410495        2.20271276020907       -0.80571402830262
C            1.30649270390958        2.43130006810966       -0.49484210870173
C            1.84391348605191        1.99116874865449        0.72064056528392
N            3.17582695284862        2.22501455777391        1.03122963295704
C            3.89401523889230        1.36667652024864        1.87821412198408
C            4.83661656657880        1.88983113971773        2.76331909194535
C            5.56594691688974        1.04883126622542        3.58203528243099
C            5.36465642523571       -0.32143780018423        3.53856100019601
C            4.42455054494021       -0.84525991031765        2.66626165265067
C            3.69570593737861       -0.01268716516042        1.83889375013624
C            3.84281001331713        3.34067863699946        0.49072076350371
C            3.22677373497837        4.59044369553809        0.46197483985974
C            3.89242146140018        5.67945218755862       -0.06879161184503
C            5.17757885989405        5.54017009427631       -0.56820830483013
C            5.79540756550433        4.30018083200168       -0.53514355295546
C            5.13511838184582        3.20424330774209       -0.01240046930132
C            1.00138672434356        1.31396243791285        1.60964527925757
C           -0.30891061726427        1.06009553536719        1.27856621264469
C           -2.87947588007047        0.00058860558504       -0.00085118399266
C           -2.26104642129621       -1.26541283061979        0.22472309577033
C           -0.84556836065218       -1.49388169026235       -0.06367314640916
C           -0.31008967625102       -1.06184146024242       -1.27971317274584
C            1.00016077782125       -1.31654339781255       -1.61031450396877
C            1.84205464930255       -1.99384588011319       -0.72079062146108
N            3.17406832816702       -2.22811874264421       -1.03081867858667
C            3.84034067009630       -3.34416987292044       -0.49029091594358
C            3.22367070455615       -4.59363843272325       -0.46200927052119
C            3.88856625896271       -5.68307771267621        0.06881026858330
C            5.17361607956517       -5.54454767523752        0.56870995073454
C            5.79207495988987       -4.30486092015382        0.53611587798208
C            5.13251918582292       -3.20848393702941        0.01337632797859
C            3.89300209266406       -1.36931439300926       -1.87667667453334
C            4.83664502631615       -1.89177486985674       -2.76107937254751
C            5.56669659118131       -1.05013980366043       -3.57850502758999
C            5.36510703748456        0.32006809721740       -3.53446948419142
C            4.42387527166603        0.84318639379275       -2.66297058658262
C            3.69433086881441        0.00998293568189       -1.83687827251191
C            1.30399006234867       -2.43352577722251        0.49454562337790
C           -0.01776822202053       -2.20417560766997        0.80491649052403
C           -3.05121780263411       -2.34732603809837        0.60570496558630
C           -4.44193340002917       -2.29954946879640        0.68834627566504
C           -5.07244250465778       -1.12194067351175        0.33703270696692
C           -4.27788635293855        0.00143366095029       -0.00111071547810
H           -5.00397812331151        3.17632426197988       -0.97680859675345
H           -2.55480882808585        3.29086921007839       -0.79689481820438
H           -0.40179102072089        2.53863534847840       -1.75645640175479
H            1.93875041905187        2.95131686592786       -1.19855296587535
H            4.99239209513320        2.95793668792807        2.80570388007299
H            6.29156587213595        1.46822255491255        4.26361856790398
H            5.93557883738074       -0.97580351003204        4.17995716060411
H            4.26584376437815       -1.91258867753760        2.61944138158233
H            2.96955776833174       -0.42874197333563        1.15826041566081
H            2.22900000513947        4.70157251570976        0.86112357595369
H            3.40733361334806        6.64448407692004       -0.08400017369577
H            5.69497072904964        6.39379198918225       -0.97965339252843
H            6.79526182734304        4.18241089150360       -0.92633408089699
H            5.61237258622885        2.23551785847474        0.00618847188321
H            1.38228304485589        1.00006656529381        2.56964476041377
H           -0.94714386002788        0.55283450042579        1.98674988381665
H           -0.94782906175102       -0.55439633481941       -1.98821279565460
H            1.38155769606019       -1.00313903181148       -2.57027795295239
H            2.22598803163630       -4.70419331215135       -0.86154444702932
H            3.40299903428783       -6.64787443044915        0.08362839420921
H            5.69044527970344       -6.39851870635942        0.98013881479679
H            6.79184399392580       -4.18766428255331        0.92769821913411
H            5.61025794152952       -2.23998983022786       -0.00479130293590
H            4.99269972010637       -2.95981920829492       -2.80393084752901
H            6.29314865569205       -1.46898722183169       -4.25953599999000
H            5.93662073370072        0.97492523852403       -4.17483478779592
H            4.26486552627903        1.91044846057340       -2.61571010489665
H            2.96729472400679        0.42548116577394       -1.15686513119421
H            1.93574778674110       -2.95372825626909        1.19857279696130
H           -0.40482317090640       -2.53970693351773        1.75558468762037
H           -2.55905423123723       -3.29008575856506        0.79529120473218
H           -5.00815327319167       -3.17259598328249        0.97425913769770
