90
 energy: -145.213060802050 gnorm: 0.000052220752 xtb: 6.7.1 (edcfbbe)
N          -11.74698189661214       -2.24048735525253       -0.82414465263816
C          -10.74375389449308       -1.71774445215250       -0.63163397351849
C           -9.52969806120126       -1.03749839973564       -0.38503097467217
N           -8.37904325610392       -1.69003083914332       -0.58897684145040
C           -7.28360742711824       -0.99952552593253       -0.34912204901226
C           -7.32403893657053        0.37530735766150        0.09570980928524
N           -8.45839084405620        1.01102877500096        0.30285111915963
C           -9.56924787992809        0.30297098698426        0.06565878361786
C          -10.82145081842383        0.92332341768736        0.27623313211715
N          -11.85363372772509        1.39750972299534        0.43905986748999
C           -5.97016793544348        0.83366596766774        0.24853385145937
C           -5.39044084844198        2.02420978410490        0.63098056287448
C           -4.00122182153049        2.09537289943349        0.61838780551268
C           -3.15775442207080        1.04143465349319        0.26333083047471
C           -1.73207402933441        1.38310309089561        0.21886274226598
C           -0.93449706343740        1.14555884948417       -0.90100405220261
C            0.34710919425004        1.64890026629037       -0.97877191905103
C            0.88029623922218        2.40967970975106        0.06629838795707
N            2.12729060265593        3.01367289520453       -0.02960225832608
C            2.34088281893846        4.26448755348421        0.57595628538040
C            1.36301144047651        5.25665542114123        0.51680332629102
C            1.58345691371076        6.48573220711430        1.10870666023662
C            2.77958347671819        6.74711604459433        1.75780581787899
C            3.75652733065292        5.76605452700353        1.81362042432864
C            3.54195153688657        4.53115198354084        1.23135376742408
C            3.18537590642351        2.42523300163853       -0.73671126588504
C            3.43158555056196        1.05659394028181       -0.64476726058163
C            4.51633959583804        0.50609091507237       -1.30113283931249
C            5.35611224210221        1.29914750492399       -2.06555031933030
C            5.10533071837421        2.65770162845931       -2.17168744188193
C            4.02889319529667        3.21991080922900       -1.51337665430536
C            0.10636902664291        2.59267636484155        1.21682780480863
C           -1.17553247267118        2.10153978647279        1.28187524943484
C           -3.72868246392738       -0.22599366046631       -0.06952575352791
C           -3.08826337015381       -1.46674924476723       -0.37805192595892
C           -1.64922242968836       -1.71782266238729       -0.27557034380382
C           -1.00481850366784       -2.44637779447493       -1.27883954747226
C            0.31932871665395       -2.80050041066843       -1.16872455604158
C            1.06219095242983       -2.43618042691560       -0.04109488291756
N            2.39298344397594       -2.80596683642514        0.08768204773451
C            2.95067051745920       -3.01337111973807        1.36458891792976
C            2.24527835942719       -3.70958704352960        2.34440232841544
C            2.80860037537225       -3.91666765029321        3.58947946624214
C            4.07989720138528       -3.44234143888195        3.87114219156783
C            4.78669374698876       -2.75535687006970        2.89737381015668
C            4.22829533547028       -2.53779117341422        1.65182215693753
C            3.18776047437663       -3.08116362524690       -1.03668348556917
C            4.10525914834877       -4.13109989288988       -1.00512149583370
C            4.90059047925983       -4.39564132851255       -2.10417930731772
C            4.78994750938426       -3.62796756779966       -3.25229919499015
C            3.87856036002846       -2.58499264568790       -3.29011843794122
C            3.08583155633925       -2.30692923186626       -2.19274298883204
C            0.42073351776738       -1.70205404125193        0.96370950039742
C           -0.90806686062766       -1.35799316565696        0.85024124873543
C           -3.86759307447604       -2.56146953711245       -0.75423068354975
C           -5.25727788636539       -2.55511612244202       -0.81508841052507
C           -5.90518381160144       -1.39141619733671       -0.45969352367167
C           -5.13378444488022       -0.25910749962095       -0.09359692458709
H           -5.98878425659324        2.87888370563861        0.90578559962178
H           -3.54207175387166        3.04184536877542        0.86330652780332
H           -1.34538530180078        0.60760200699444       -1.74195796866065
H            0.93401937409770        1.49221613585322       -1.87165265382142
H            0.43477232533604        5.05863081235443        0.00079966278270
H            0.81992224631660        7.24791548837553        1.05363120853875
H            2.94962659707396        7.70989313379594        2.21577591600996
H            4.69049055508465        5.96081977540020        2.32020937107169
H            4.30205822414070        3.76514005445835        1.28066223433977
H            2.77891377876721        0.43728098080461       -0.04663570253960
H            4.71192733670008       -0.55174278630298       -1.21635262868069
H            6.20100348649839        0.85927698475759       -2.57363753300325
H            5.74935516825609        3.28356582005473       -2.77206510966996
H            3.83494753941318        4.27971656585349       -1.59244815349225
H            0.51878275455089        3.14001473558845        2.05131891773794
H           -1.75518668536181        2.25438700232298        2.18055431105127
H           -1.55111297009865       -2.72858427697613       -2.16689527352859
H            0.78192999423796       -3.38370039984827       -1.95023095540557
H            1.25931446104792       -4.09075730993211        2.12108060482609
H            2.25506336984412       -4.46084343356331        4.34071554397943
H            4.51799306732277       -3.60978652296439        4.84359462629739
H            5.77730640906213       -2.38096012616410        3.10982546263372
H            4.77888025340287       -1.99998120923718        0.89437372906959
H            4.18912551332217       -4.73950681631112       -0.11650398985643
H            5.60568054265149       -5.21304585243598       -2.06520143870435
H            5.40992389039783       -3.84032667224934       -4.11023075398231
H            3.79121424948492       -1.97289305302769       -4.17582858358027
H            2.39125415426061       -1.48117254304481       -2.22226638191933
H            0.97181046743817       -1.41051832447532        1.84535324283115
H           -1.38785681646219       -0.82789146117592        1.65852521655501
H           -3.35742984160877       -3.48775147932016       -0.97321468996850
H           -5.80579343579922       -3.43861760878348       -1.10261628973970
