  70
        -99.20577425
 C          6.3004893774        0.4092747924        0.3959483703
 C          4.8808047542        0.3004325294        0.9842294085
 C          4.9270947417        0.4987971462        2.5115154139
 C          4.3380099011       -1.0817183085        0.6977057482
 C          5.0044105180       -2.1987476913        1.1726195415
 C          4.5320397020       -3.4841582163        0.9626633098
 C          3.3376973309       -3.6688085530        0.2677145033
 C          2.6505970930       -2.5821297098       -0.2126355779
 C          3.1405586985       -1.2761612147       -0.0272636237
 N          2.4390898813       -0.2065330074       -0.5305877857
 C          1.2016158723       -0.4440131899       -1.1860806402
 C          1.1845070690       -0.9258108997       -2.5171970699
 C         -0.0343683488       -1.1319076558       -3.1422163872
 C         -1.2231647093       -0.8830778619       -2.4897127050
 C         -1.1983147863       -0.4039567424       -1.1559314163
 N         -2.4121580003       -0.1425811419       -0.4721414317
 C         -2.7652837589        1.1602437621       -0.2090400482
 C         -1.9533168989        2.2161673604       -0.6711087105
 C         -2.2632148428        3.5216639752       -0.3929940103
 C         -3.4060250898        3.8236641177        0.3482667722
 C         -4.2328707251        2.7920831088        0.7687716625
 C         -3.9491653568        1.4647015907        0.5044037695
 C         -4.9106940856        0.3849051483        0.9453907060
 C         -6.2661897832        0.6305557540        0.2548906218
 C         -5.0781832059        0.4596904261        2.4753058449
 C         -4.4234447121       -0.9998166592        0.5843450808
 C         -5.1786404843       -2.1079483947        0.9239646360
 C         -4.7584147091       -3.4011890635        0.6482065206
 C         -3.5244756248       -3.6003719613        0.0301251978
 C         -2.7522755645       -2.5231473677       -0.3218692051
 C         -3.1917164144       -1.2051234892       -0.0797168193
 C          0.0177684215       -0.1902500876       -0.5204424650
 C          2.8663863540        1.0902927977       -0.3748220917
 C          2.1472466746        2.1405426178       -0.9778508330
 C          2.5263475934        3.4466810122       -0.8066617430
 C          3.6437314965        3.7501294659       -0.0281545894
 C          4.3774642431        2.7183263975        0.5374345676
 C          4.0260543967        1.3899901700        0.3772914564
 H          6.2653667649        0.2659800330       -0.6821030262
 H          6.9547024861       -0.3454900440        0.8223778302
 H          6.7281001052        1.3867023741        0.5988623535
 H          3.9229346851        0.4251674927        2.9245688133
 H          5.3309594463        1.4755451845        2.7614655338
 H          5.5478708128       -0.2590696391        2.9804668955
 H          5.9217206825       -2.0743959824        1.7278901402
 H          5.0791016192       -4.3319810108        1.3437285785
 H          2.9491615069       -4.6634967361        0.1109244322
 H          1.7215532632       -2.7236630642       -0.7405322669
 H          2.1163400809       -1.1130517292       -3.0252369457
 H         -0.0523252652       -1.4925718522       -4.1603113959
 H         -2.1734074213       -1.0358065236       -2.9758953801
 H         -1.0806356002        1.9862359552       -1.2588477633
 H         -1.6241749285        4.3142905026       -0.7514559162
 H         -3.6545968831        4.8473196011        0.5788001011
 H         -5.1280078607        3.0458644834        1.3160308962
 H         -6.9942552019       -0.1164774586        0.5573949956
 H         -6.6556650962        1.6121919950        0.5087047250
 H         -6.1453871702        0.5769013619       -0.8252766309
 H         -5.7793201741       -0.2925835117        2.8242211921
 H         -4.1194556692        0.2882720166        2.9607491884
 H         -5.4467611532        1.4357694125        2.7764125156
 H         -6.1257062784       -1.9737349023        1.4241214042
 H         -5.3743476587       -4.2421978234        0.9243559054
 H         -3.1725748754       -4.6016181378       -0.1670817208
 H         -1.7923661850       -2.6792277010       -0.7860754956
 H          0.0371211991        0.1799358263        0.4946264129
 H          1.2943265641        1.9027830940       -1.5923186332
 H          1.9616310902        4.2376928256       -1.2765119295
 H          3.9439469488        4.7750435866        0.1214550451
 H          5.2525317765        2.9709569838        1.1168743711
