70
 energy: -99.354820788263 gnorm: 0.000051842906 xtb: 6.7.1 (edcfbbe)
C            6.34728796689387       -0.37034638574233        0.25636025052823
C            4.97037767976181       -0.25276747775401        0.93685398604447
C            5.12185262515580       -0.35913074655548        2.46608326977383
C            4.09258472971978       -1.39170117462919        0.45170551188367
C            4.49197321992258       -2.70342631324479        0.67007698966171
C            3.74559079148136       -3.78287361238301        0.23358684597117
C            2.56816959080326       -3.55504705163689       -0.45573429103896
C            2.14916971010500       -2.26182649748933       -0.68741269171205
C            2.88969923771930       -1.16905490021269       -0.22729686519041
N            2.43281275437650        0.11864389797282       -0.46414830282266
C            1.20286508158878        0.29802861656847       -1.15500244407893
C            1.20342256445599        0.62725854798096       -2.50599227339331
C            0.00384981171925        0.79737774911114       -3.17520232405664
C           -1.19777117755395        0.63259114835963       -2.50831152401111
C           -1.20110533680637        0.30316674646060       -1.15740573420626
N           -2.43310426328735        0.12873848546780       -0.46881653916358
C           -3.14143434029955        1.24797403348155       -0.05911499700337
C           -2.61761255475178        2.52257468531717       -0.29517560386878
C           -3.30383327923848        3.65595848068813        0.08788060485464
C           -4.52742440118016        3.53758192552223        0.72212073119280
C           -5.03780648170661        2.27738865013663        0.97545442800458
C           -4.36826435153611        1.11999116318450        0.60144491998485
C           -4.97382372853420       -0.23255980148331        0.92890356207137
C           -6.35082153640716       -0.33863383485961        0.24667754807499
C           -5.12733876845293       -0.34440339860723        2.45753635039096
C           -4.10285695991089       -1.37496209697220        0.43959184820405
C           -4.51051502507706       -2.68507210011305        0.65221314289246
C           -3.77064329228181       -3.76728382839703        0.21145360338030
C           -2.59141674144868       -3.54390998707311       -0.47623414538556
C           -2.16407390163906       -2.25236755881709       -0.70196447115146
C           -2.89822890465652       -1.15700055153339       -0.23783454823854
C           -0.00015340409749        0.14191658476848       -0.47844431435018
C            3.14810214442167        1.23513012873507       -0.05882011885062
C            2.63257754377744        2.51208225493387       -0.30044646909808
C            3.32588052127763        3.64267648708185        0.07807257814725
C            4.54838241883518        3.51917936222252        0.71343403734719
C            5.05042390090823        2.25682767838467        0.97257407179679
C            4.37366901965635        1.10216055532576        0.60310480413906
H            6.23454148421540       -0.29698034075623       -0.82415901534403
H            6.81425853645407       -1.32357468592513        0.48807093461179
H            7.01210551571941        0.42305686158449        0.58628535952047
H            4.14686854207258       -0.26954993405963        2.94257122797594
H            5.76357010519791        0.43012232475950        2.84794943569233
H            5.55414606272750       -1.31542198344262        2.74745227385600
H            5.41478571267116       -2.89581257491111        1.19627232773887
H            4.08501784764233       -4.78999035753769        0.42420721637764
H            1.97417233053249       -4.38169800013585       -0.81738503157179
H            1.23677271511699       -2.09198657264474       -1.23736080666422
H            2.14454612553403        0.75026689081558       -3.02065567223420
H            0.00544647643184        1.05268763027511       -4.22398011910378
H           -2.13739590227721        0.75969194603133       -3.02471032312017
H           -1.66045292353779        2.62264514507822       -0.78325093851638
H           -2.87943835323488        4.62966709908115       -0.10903187674066
H           -5.07758936293810        4.41632447208577        1.02376025116656
H           -5.98800626772817        2.20012054282884        1.48205869678364
H           -6.82426191545125       -1.28961216045124        0.47448679714789
H           -7.01074461398467        0.45794316133605        0.57879947491317
H           -6.23650561002649       -0.26215117438616       -0.83346327775335
H           -5.56512348940092       -1.29945965286583        2.73455895207113
H           -4.15234782223876       -0.26207338165512        2.93532556451378
H           -5.76511831756620        0.44675325614740        2.84205870529479
H           -5.43474511092538       -2.87394345990352        1.17718672232764
H           -4.11652576697738       -4.77306835004471        0.39745953883686
H           -2.00242830956423       -4.37269895537805       -0.84116528765604
H           -1.25013524772230       -2.08579699356046       -1.25037965967693
H           -0.00185708777559       -0.11540392736543        0.57074406998516
H            1.67627054679582        2.61630081184196       -0.78929596596869
H            2.90784748242113        4.61823431067326       -0.12326534605010
H            5.10407653898883        4.39564368056749        1.01154498785192
H            5.99979407652992        2.17565654549960        1.48012495071192
