70
 energy: -99.241098143704 gnorm: 0.000061993755 xtb: 6.7.1 (edcfbbe)
C            6.34425453680514       -0.37233099855373        0.27361154915902
C            4.96252112644432       -0.25460062105415        0.94839671635465
C            5.11446515609734       -0.35909055724903        2.47937149282664
C            4.09394907811018       -1.39475490826543        0.46466765603549
C            4.48180159746745       -2.70415584160026        0.68756363524427
C            3.73552099426857       -3.78436974321965        0.24006179757024
C            2.56049765281642       -3.55252026309282       -0.47678209738415
C            2.14806827190087       -2.26691483307863       -0.71430371408817
C            2.88616106820543       -1.16528373470780       -0.23778100547707
N            2.43397655497753        0.11318477041584       -0.47026593624354
C            1.20111418370941        0.29528310233399       -1.15707803261405
C            1.20705467527660        0.64704917676670       -2.52818752192195
C            0.00430993154962        0.81619904719873       -3.18755913747453
C           -1.20081318058416        0.65284646254731       -2.53068692404933
C           -1.19923730710306        0.30094657293370       -1.15964648546820
N           -2.43435488022338        0.12431300860027       -0.47536302548432
C           -3.13102841258055        1.23862621318175       -0.06794908799009
C           -2.60255291721261        2.52149683164096       -0.31297206905651
C           -3.28162009446439        3.65081827760857        0.06796387037210
C           -4.51118959635830        3.53683975762534        0.71735442739097
C           -5.02581547483057        2.27643574210140        0.98155130383092
C           -4.36750903027462        1.11692923093788        0.60965504645858
C           -4.96582873845550       -0.23252821910608        0.94073701945088
C           -6.34792384244600       -0.34126031319509        0.26518777047877
C           -5.11888920293256       -0.33939931525998        2.47143705538726
C           -4.10334655857228       -1.37642238685320        0.45490693026515
C           -4.49861890246998       -2.68414739154429        0.67465435668569
C           -3.75808278804971       -3.76746213385436        0.22515999339405
C           -2.58129639216797       -3.54055273049536       -0.49031394953863
C           -2.16143684788329       -2.25671675375460       -0.72448138952002
C           -2.89387152563313       -1.15212771155796       -0.24620358889858
C           -0.00029892475215        0.12607704219207       -0.48699321148282
C            3.13642450719354        1.22448332799331       -0.06451282027162
C            2.61517807887998        2.50982036221179       -0.31250270229800
C            3.30030171786647        3.63613961286893        0.06636132625818
C            4.52894597786816        3.51674488759236        0.71658640933142
C            5.03639237652799        2.25403420263707        0.98385397781498
C            4.37184021037482        1.09742352733008        0.61415759223323
H            6.23634438565719       -0.29919757117019       -0.80721115930358
H            6.80819898752049       -1.32586660645168        0.50891633498244
H            7.00557572154401        0.42191662496565        0.60770121193999
H            4.13945090559297       -0.27149593854762        2.95557629291153
H            5.75450186489871        0.43251869272245        2.85824224477141
H            5.54960756783997       -1.31404497167133        2.75963719377096
H            5.39700603739741       -2.90347408957336        1.22450993767425
H            4.06679351013011       -4.79238407196607        0.43597661472279
H            1.97795083016027       -4.38250440279327       -0.84827826678341
H            1.24836174286582       -2.08635502508193       -1.28092347090222
H            2.14942573559787        0.77186694307820       -3.03751229356329
H            0.00604425636975        1.08063997087838       -4.23550756448239
H           -2.14150026799644        0.78216945992107       -3.04196538397066
H           -1.64845840002231        2.60929787096656       -0.80815531293070
H           -2.86161021891141        4.62530204761395       -0.13255302159252
H           -5.05390462332405        4.41924390928753        1.01933507132868
H           -5.97222927618738        2.20896556405682        1.49663426405935
H           -6.81754217870188       -1.29239722964248        0.49894309437074
H           -7.00477061764082        0.45636849206278        0.60006855852846
H           -6.23908375915377       -0.26727595211503       -0.81548272159897
H           -5.55832549489282       -1.29299979749568        2.74961460807344
H           -4.14370540195890       -0.25701530122396        2.94822988988336
H           -5.75561426052125        0.45425267421340        2.85162142608024
H           -5.41521776937519       -2.87952263759068        1.21066314893770
H           -4.09511556645613       -4.77406636549386        0.41848990754317
H           -2.00312454815478       -4.37293690215999       -0.86327635920361
H           -1.26018392299954       -2.07986986042754       -1.28982421420360
H           -0.00213128699055       -0.14503158677560        0.55971631965123
H            1.66180234265679        2.60187142949401       -0.80827458465773
H            2.88580226237717        4.61251572890878       -0.13643781401503
H            5.07646681882641        4.39675796938609        1.01685756752494
H            5.98214760724226        2.18248684812268        1.49960149847852
