  70
        -99.31882491
 C          6.3267189138       -0.3910205668        0.2427597421
 C          4.9560493594       -0.2581289304        0.9307976918
 C          5.1159400511       -0.3576068999        2.4586281797
 C          4.0673479421       -1.3923908730        0.4578895465
 C          4.4528495624       -2.7052407940        0.6907984763
 C          3.6959070546       -3.7805317806        0.2633786768
 C          2.5238204598       -3.5471840000       -0.4325872581
 C          2.1187453619       -2.2525714637       -0.6789966074
 C          2.8695350171       -1.1635707160       -0.2269347356
 N          2.4306756326        0.1258065888       -0.4808538235
 C          1.2027147678        0.3115622016       -1.1672600837
 C          1.1996935914        0.6632617917       -2.5125613852
 C         -0.0013778019        0.8440553630       -3.1757651554
 C         -1.2008805414        0.6668311180       -2.5086851917
 C         -1.2005584146        0.3143670090       -1.1636452887
 N         -2.4277553880        0.1315104147       -0.4746846963
 C         -3.1357712829        1.2461142646       -0.0563053914
 C         -2.6112629953        2.5227182842       -0.2788744079
 C         -3.2982856769        3.6512458140        0.1158629932
 C         -4.5229134033        3.5264036245        0.7462877754
 C         -5.0338037285        2.2641651765        0.9859271851
 C         -4.3620043175        1.1116977091        0.6028416001
 C         -4.9647665004       -0.2439142460        0.9177693200
 C         -6.3283959553       -0.3555250106        0.2123394684
 C         -5.1435935487       -0.3592515901        2.4423885465
 C         -4.0815643549       -1.3812801601        0.4419181831
 C         -4.4785007062       -2.6929086411        0.6619509632
 C         -3.7255939879       -3.7705991622        0.2334267346
 C         -2.5458423647       -3.5408831215       -0.4505867078
 C         -2.1298875640       -2.2475247158       -0.6852507779
 C         -2.8771855727       -1.1564053495       -0.2326985518
 C          0.0018567300        0.1424012162       -0.4915259878
 C          3.1494495906        1.2384141073       -0.0752175838
 C          2.6413246981        2.5177708306       -0.3191264888
 C          3.3395163314        3.6438695962        0.0628217892
 C          4.5585373703        3.5140569138        0.7029509564
 C          5.0528041745        2.2495076509        0.9643059839
 C          4.3703260477        1.0994622141        0.5929045934
 H          6.2060833822       -0.3243584761       -0.8370129515
 H          6.7876374645       -1.3463265635        0.4777047912
 H          6.9992550437        0.4000932830        0.5623405142
 H          4.1438379253       -0.2620996479        2.9390025696
 H          5.7623320560        0.4309169767        2.8335674477
 H          5.5461212095       -1.3139000138        2.7425907711
 H          5.3728050261       -2.9015497757        1.2201136911
 H          4.0238220922       -4.7886801478        0.4648890953
 H          1.9235044768       -4.3711439526       -0.7883768847
 H          1.2116705747       -2.0796031313       -1.2356115953
 H          2.1397708277        0.7960947795       -3.0264887876
 H         -0.0025997638        1.1171991554       -4.2199755377
 H         -2.1421757330        0.8022262790       -3.0196866269
 H         -1.6529613050        2.6279061086       -0.7632287503
 H         -2.8734404713        4.6266511417       -0.0684139624
 H         -5.0728192090        4.4015806897        1.0563482696
 H         -5.9853318913        2.1809001627        1.4885911174
 H         -6.8007820485       -1.3091877212        0.4304865182
 H         -6.9967352807        0.4381539478        0.5339899456
 H         -6.1951506099       -0.2769781667       -0.8649876852
 H         -5.5857702102       -1.3144851736        2.7103623655
 H         -4.1763797731       -0.2781677568        2.9348008314
 H         -5.7870817105        0.4306602896        2.8189884495
 H         -5.4048000614       -2.8863462316        1.1812828956
 H         -4.0626352600       -4.7777763415        0.4248491653
 H         -1.9480518590       -4.3666761227       -0.8061746928
 H         -1.2166775307       -2.0771319470       -1.2323987174
 H          0.0030974512       -0.1343328986        0.5520049351
 H          1.6868968460        2.6274773346       -0.8100919331
 H          2.9279683982        4.6213365618       -0.1396824425
 H          5.1171657616        4.3871949345        1.0030499435
 H          5.9995432904        2.1624240160        1.4753599096
