70
 energy: -99.241112266026 gnorm: 0.000058128249 xtb: 6.7.1 (edcfbbe)
C            6.31385768452322        0.29590464762000        0.36924160047296
C            4.90763183875981        0.22077071718692        0.99784386931420
C            5.00675975911495        0.38448788180437        2.52790899753456
C            4.31133857625353       -1.13673482323181        0.69712643499603
C            4.94759855947319       -2.28525139374643        1.13641225415959
C            4.43098743119413       -3.55107760346755        0.90643180714752
C            3.22218400041145       -3.68248789213369        0.22237441250802
C            2.56544061713380       -2.56434662124532       -0.22559291218976
C            3.09688876252816       -1.27714775759258       -0.01546646664557
N            2.42324848182423       -0.17479556545279       -0.48891826582177
C            1.19388043670999       -0.36512510789858       -1.17975669139437
C            1.20162104307069       -0.76124617209923       -2.53866567698942
C           -0.00123784903992       -0.93023971704520       -3.19908969949574
C           -1.20652807825643       -0.72405611634556       -2.55553628989588
C           -1.20623204494430       -0.32907648036747       -1.19604529023103
N           -2.43768446379817       -0.10233864304022       -0.52094779430534
C           -2.85362309353339        1.19259453435204       -0.31498897857279
C           -2.10768261127052        2.26159238448147       -0.85090893745046
C           -2.47746896531283        3.56321754706241       -0.63285137046615
C           -3.61395726818773        3.84497174381820        0.12778827258797
C           -4.37055311615099        2.79699718901366        0.63148356969268
C           -4.02876395997427        1.47247678704036        0.42445847408269
C           -4.90967384619160        0.36815285375576        0.96494018139540
C           -6.31132938130876        0.51207242364239        0.33807032139311
C           -5.00257125407633        0.50891568761284        2.49769866876091
C           -4.36953308301090       -1.00696764151741        0.63990686323276
C           -5.05444899407809       -2.13596420055186        1.05615238020820
C           -4.59088208679378       -3.41773791272430        0.80312687672676
C           -3.38550410413754       -3.58682992554158        0.12067714815456
C           -2.68042452685220       -2.48897051667155       -0.30307060065754
C           -3.15875011122313       -1.18464717591690       -0.07147206492514
C           -0.00721225645604       -0.15334358001991       -0.52309432086223
C            2.88802829562934        1.10616654957422       -0.29937214196277
C            2.18433704710084        2.19495074753763       -0.85110061108946
C            2.60619715155167        3.48438663090747       -0.65426931758660
C            3.75381069838058        3.73241462156068        0.10052802843504
C            4.46740976607650        2.66357393349382        0.62221399423722
C            4.07213792013842        1.35042176222030        0.43731688364241
H            6.24360204527068        0.17984945569945       -0.71091528697461
H            6.95320683367536       -0.49081117170993        0.75927927873095
H            6.78043293896417        1.25342189378830        0.58221130622806
H            4.01472745617738        0.32668301845215        2.97249184969240
H            5.44382544536561        1.34490548956668        2.78533479716260
H            5.62316040550438       -0.39847179746166        2.96018346639126
H            5.87709335324850       -2.20360646786385        1.67947829340950
H            4.95575013709801       -4.42456479833892        1.26144794026229
H            2.80042633521596       -4.66116188339927        0.04782960894388
H            1.62720475613768       -2.66495179948349       -0.74800101568925
H            2.14426394556060       -0.91715462858711       -3.03869840461476
H            0.00145912576503       -1.22774644248471       -4.23816094713124
H           -2.14658286732430       -0.85065262549953       -3.06876317470100
H           -1.23644635307633        2.04200449135268       -1.44764465329948
H           -1.89107491472564        4.36764847245054       -1.05152763630186
H           -3.90921906834132        4.86628358866960        0.31201960103270
H           -5.25754645852459        3.03491986753444        1.19931695614967
H           -6.98276564979266       -0.25452878291730        0.71386730139376
H           -6.73803112309717        1.48400784809427        0.56841888531200
H           -6.24518475226346        0.41258153479704       -0.74399655072632
H           -5.64786158256420       -0.25778848763122        2.91675948487675
H           -4.01332708737655        0.40621345142825        2.94038633065263
H           -5.40302995216434        1.48057969203591        2.77202648260699
H           -5.98137123897691       -2.02583060343479        1.59861269893941
H           -5.15354235104935       -4.27495907628553        1.13924990864925
H           -3.00451938827898       -4.57887626146782       -0.07130733951642
H           -1.74481061529836       -2.61933026080699       -0.82345300779526
H           -0.00949489101622        0.15318465355219        0.51379047344775
H            1.30381144672931        2.00101380375498       -1.44297903141900
H            2.05145156997770        4.30460384492270       -1.08524688021600
H            4.09050014409912        4.74388685193841        0.26723515921073
H            5.36302703079214        2.87495961488564        1.18694550230967
