  94
  -140.756053238200       0.288865019326864      !
 C         -5.7599482334        4.1092317339       -0.6943229474
 C         -6.0389954440        2.6049419888       -0.5135795492
 C         -7.5233830130        2.3026509180       -0.7948017692
 C         -5.1912612144        1.8306141109       -1.5017144544
 C         -5.3547609492        2.0476635877       -2.8628696204
 C         -4.6051289226        1.3695290150       -3.8066788534
 C         -3.6614909427        0.4426947727       -3.3914258878
 C         -3.4725904057        0.2081207944       -2.0484671790
 C         -4.2299498581        0.8952825385       -1.0880518219
 N         -4.0118290301        0.6554591928        0.2540033707
 C         -2.9706185712       -0.2443006238        0.6218386296
 C         -1.7434098511        0.2487839174        1.0543178016
 C         -0.7127125288       -0.6209237150        1.3269269568
 C         -0.8745577296       -2.0040719130        1.1388891562
 C          0.2701299665       -2.8926093783        1.3721646402
 O          1.2116696603       -2.5761610588        2.1076058685
 C          0.2056923272       -4.1872253094        0.6630870827
 C          0.4919203372       -5.3941639526        1.2932389040
 C          0.2819850903       -6.5825272675        0.6223195991
 C         -0.2153882534       -6.5789964706       -0.6784789042
 C         -0.4530905796       -5.3861983490       -1.3322854587
 C         -0.1938528936       -4.1823289721       -0.6851620092
 C         -0.2766243715       -2.8794490158       -1.3776692184
 O         -1.2236423099       -2.5622986845       -2.1052339042
 C          0.8617272758       -1.9844868271       -1.1366876650
 C          2.1376919654       -2.4671441306       -0.8079814676
 C          3.1667030023       -1.5984211708       -0.5420839951
 C          2.9518637825       -0.2206230379       -0.6125307533
 N          3.9948606669        0.6779660964       -0.2468036470
 C          4.7260169862        1.2997307884       -1.2336384516
 C          4.4789547977        0.9822871597       -2.5770292242
 C          5.1902421051        1.5884138815       -3.5872928375
 C          6.1659737706        2.5236734064       -3.2793718455
 C          6.4212797075        2.8309641839       -1.9553691674
 C          5.7231532361        2.2341871816       -0.9150503258
 C          6.0494145946        2.5989302630        0.5177397512
 C          5.7859094085        4.1039293248        0.7151974232
 C          7.5336835064        2.2801880942        0.7808405793
 C          5.2050495731        1.8229221020        1.5075335996
 C          5.3857827543        2.0237456914        2.8689987818
 C          4.6419533548        1.3407341226        3.8138763398
 C          3.6865665874        0.4255846955        3.3994376660
 C          3.4796070901        0.2081655016        2.0562647835
 C          4.2310912037        0.9003652655        1.0948440360
 C          1.7176298675        0.2718933897       -1.0247305159
 C          0.6895706922       -0.5998085402       -1.3016107395
 C         -2.1452889020       -2.4890518292        0.7935249628
 C         -3.1768094449       -1.6222728054        0.5303385611
 C         -4.7471666187        1.2755001263        1.2386618037
 C         -4.5184404711        0.9417882363        2.5814857102
 C         -5.2333634838        1.5461431943        3.5900767291
 C         -6.1947712469        2.4959511239        3.2811484683
 C         -6.4329119761        2.8185770595        1.9576666261
 C         -5.7309465116        2.2236240761        0.9188702389
 H         -4.7099114474        4.3176929447       -0.4982382025
 H         -6.3611991608        4.6989796131       -0.0080602107
 H         -5.9891929081        4.4258981146       -1.7078000804
 H         -7.7881760578        2.5771293829       -1.8117796477
 H         -8.1673111119        2.8537608998       -0.1154850570
 H         -7.7154118851        1.2393957272       -0.6646876726
 H         -6.0854465360        2.7658548969       -3.2028719638
 H         -4.7586914713        1.5629141015       -4.8573890441
 H         -3.0701728666       -0.1024329722       -4.1102243705
 H         -2.7442735267       -0.5257624825       -1.7428325036
 H         -1.6059517903        1.3160004360        1.1558433060
 H          0.2458529287       -0.2540828827        1.6596656841
 H          0.8432494491       -5.3830030570        2.3144919152
 H          0.4866471818       -7.5216082669        1.1155747942
 H         -0.3964812432       -7.5154002960       -1.1858526771
 H         -0.8029600714       -5.3686864372       -2.3539669611
 H          2.3119207900       -3.5308456160       -0.7497069058
 H          4.1426466696       -1.9681882057       -0.2647105467
 H          3.7248066670        0.2486964721       -2.8144947248
 H          4.9860631940        1.3301858351       -4.6151717651
 H          6.7278629465        3.0066228480       -4.0639687088
 H          7.1879652021        3.5575816228       -1.7335603580
 H          6.0255899191        4.4086436058        1.7299190645
 H          4.7365193015        4.3242729296        0.5287924780
 H          6.3877596097        4.6943951101        0.0300501105
 H          8.1758662806        2.8342752533        0.1023339230
 H          7.7151746986        1.2170523232        0.6354784296
 H          7.8107273989        2.5394847067        1.7985166793
 H          6.1261102484        2.7323308934        3.2083382748
 H          4.8091751238        1.5210424558        4.8648128514
 H          3.1000809406       -0.1234818375        4.1191715798
 H          2.7418605512       -0.5161998035        1.7504849657
 H          1.5729681547        1.3396723447       -1.1084669658
 H         -0.2739042274       -0.2335463477       -1.6203779968
 H         -2.3129729236       -3.5527719821        0.7183492460
 H         -4.1477632267       -1.9938528928        0.2382870400
 H         -3.7753274529        0.1970555144        2.8191663338
 H         -5.0433064421        1.2757395843        4.6175297020
 H         -6.7589640762        2.9780086058        4.0646214460
 H         -7.1892945843        3.5556334035        1.7348625834
  94
  -140.755925125700       0.252242652568069      !
 C         -5.6058720954        4.1073779262       -0.8040129660
 C         -5.9528147900        2.6336904541       -0.5173177177
 C         -7.4651256030        2.3996721151       -0.6940745014
 C         -5.2034213039        1.7621183700       -1.5039156324
 C         -5.4491810895        1.9006723294       -2.8630008337
 C         -4.7799921258        1.1448342784       -3.8080756587
 C         -3.8277323889        0.2256291555       -3.3960198297
 C         -3.5574541263        0.0684069302       -2.0556262263
 C         -4.2434550459        0.8240629794       -1.0928438539
 N         -3.9564646099        0.6513854138        0.2474134552
 C         -2.9235652235       -0.2576521439        0.6106691693
 C         -1.6877655536        0.2238508340        1.0323428306
 C         -0.6649395330       -0.6555428538        1.3026777088
 C         -0.8423486226       -2.0372846829        1.1191986450
 C          0.2945314308       -2.9387148520        1.3417310161
 O          1.2419012699       -2.6365558529        2.0752998017
 C          0.2145122506       -4.2262528588        0.6220407208
 C          0.4939349936       -5.4398744899        1.2429216720
 C          0.2680730297       -6.6225336810        0.5675517734
 C         -0.2381608689       -6.6071475515       -0.7299345566
 C         -0.4694972726       -5.4086385024       -1.3747957811
 C         -0.1951298284       -4.2101076352       -0.7231597116
 C         -0.2795370204       -2.9056727526       -1.4114428853
 O         -1.2305555240       -2.5892432611       -2.1347341422
 C          0.8563288540       -2.0075127831       -1.1727408374
 C          2.1344208592       -2.4834046521       -0.8420985474
 C          3.1555257343       -1.6091579756       -0.5640195304
 C          2.9307337381       -0.2321931951       -0.6252755750
 N          3.9582289752        0.6735146840       -0.2342721638
 C          4.6854362429        1.3283870624       -1.2021719549
 C          4.4695114287        1.0178478613       -2.5525384659
 C          5.1775467554        1.6562981461       -3.5448630472
 C          6.1189382912        2.6177864934       -3.2116249438
 C          6.3442529819        2.9180525843       -1.8807241782
 C          5.6486787227        2.2888893673       -0.8579456908
 C          5.9417418316        2.6469593747        0.5836349902
 C          5.6317520841        4.1411968528        0.7940359694
 C          7.4304384581        2.3684664202        0.8661574608
 C          5.1057357604        1.8350425065        1.5514372918
 C          5.2571670256        2.0285624555        2.9175777499
 C          4.5192669866        1.3140437939        3.8436078565
 C          3.6017803844        0.3719806938        3.4046834682
 C          3.4248746429        0.1606068363        2.0562543020
 C          4.1678119095        0.8870050030        1.1137274435
 C          1.6972948538        0.2537359388       -1.0474425033
 C          0.6768743254       -0.6234195137       -1.3354080509
 C         -2.1210884014       -2.5106992325        0.7875581869
 C         -3.1456895236       -1.6343865479        0.5302753220
 C         -4.6183943286        1.3472264696        1.2344574360
 C         -4.3393797895        1.0675872134        2.5802913478
 C         -4.9728065375        1.7550006803        3.5901137412
 C         -5.9025295527        2.7353578430        3.2801363456
 C         -6.1970044575        2.9994193454        1.9550583210
 C         -5.5793519042        2.3185473287        0.9154460690
 H         -4.5365888962        4.2673037237       -0.6789122807
 H         -6.1342534753        4.7683319410       -0.1226155340
 H         -5.8761574679        4.3767670186       -1.8211271853
 H         -7.7053592254        1.3593306736       -0.4841153715
 H         -7.7764816034        2.6256328381       -1.7095573921
 H         -8.0369772216        3.0276367157       -0.0171056149
 H         -6.1809129016        2.6189919179       -3.2004261199
 H         -4.9984066567        1.2761669441       -4.8569520555
 H         -3.2908056434       -0.3730928468       -4.1147771199
 H         -2.8169984987       -0.6557006941       -1.7560754700
 H         -1.5370430337        1.2899914592        1.1263406096
 H          0.2989964133       -0.2966513042        1.6280710633
 H          0.8520336187       -5.4371616748        2.2619024974
 H          0.4663275474       -7.5662809004        1.0544967185
 H         -0.4320198443       -7.5389630288       -1.2410060276
 H         -0.8271154805       -5.3815247973       -2.3935901613
 H          2.3155746689       -3.5462530240       -0.7894587908
 H          4.1320701108       -1.9737526073       -0.2820582926
 H          3.7424375613        0.2635768999       -2.8088235150
 H          4.9978958923        1.4032333878       -4.5785178720
 H          6.6777762402        3.1262873458       -3.9821006813
 H          7.0850468729        3.6648811161       -1.6391771661
 H          5.8560232981        4.4430220873        1.8132173737
 H          4.5772914056        4.3313033166        0.6033700243
 H          6.2193102241        4.7564914228        0.1184603453
 H          8.0663579554        2.9523397835        0.2071732644
 H          7.6460447929        1.3138008926        0.7073565406
 H          7.6831003705        2.6191111639        1.8923034755
 H          5.9685850125        2.7570060332        3.2756475511
 H          4.6622724297        1.4903781704        4.8988150016
 H          3.0213478636       -0.2030380813        4.1088695472
 H          2.7180555743       -0.5862194998        1.7329195467
 H          1.5459689455        1.3209138640       -1.1274443509
 H         -0.2869028255       -0.2625177790       -1.6597729434
 H         -2.3000516233       -3.5730823874        0.7197228898
 H         -4.1241148488       -1.9969755835        0.2520932162
 H         -3.6228199882        0.2983812114        2.8209678941
 H         -4.7435667470        1.5254579489        4.6194757660
 H         -6.4005794614        3.2845015094        4.0641972438
 H         -6.9303582228        3.7591079143        1.7315870625
  94
  -140.755731477800       0.205505813357490      !
 C         -5.8434705102        4.0490404581       -0.8269887250
 C         -6.0727965770        2.5597842327       -0.5063805043
 C         -7.5680917681        2.2115018634       -0.6372064797
 C         -5.2907465496        1.7243860274       -1.4987724613
 C         -5.5620659636        1.8414481991       -2.8550491345
 C         -4.8706761795        1.1119049223       -3.8047954764
 C         -3.8715522226        0.2401214388       -3.4003768080
 C         -3.5774402005        0.1032270026       -2.0627291193
 C         -4.2843721306        0.8330270768       -1.0950830311
 N         -3.9714913197        0.6816223250        0.2419359909
 C         -2.9262954803       -0.2166862964        0.5963111690
 C         -1.6885327368        0.2707919815        1.0049793773
 C         -0.6610249334       -0.6043134323        1.2723822455
 C         -0.8355731312       -1.9876999890        1.0981076837
 C          0.3021825173       -2.8866548745        1.3241571744
 O          1.2518406080       -2.5787015482        2.0527851990
 C          0.2180620870       -4.1813700917        0.6178999806
 C          0.4927735580       -5.3897089384        1.2508762189
 C          0.2617647621       -6.5780983572        0.5872719527
 C         -0.2449917555       -6.5733426099       -0.7100635878
 C         -0.4716309537       -5.3803072096       -1.3669285529
 C         -0.1921934415       -4.1766315688       -0.7272775752
 C         -0.2684970960       -2.8773513733       -1.4265408851
 O         -1.2159972314       -2.5591625728       -2.1531410649
 C          0.8744367270       -1.9865752850       -1.1915012431
 C          2.1482116088       -2.4731025060       -0.8596846683
 C          3.1754379176       -1.6074554945       -0.5778636321
 C          2.9614562765       -0.2287780680       -0.6377270926
 N          3.9940141893        0.6664766867       -0.2365294332
 C          4.7362844336        1.3165628014       -1.1960980459
 C          4.5208710417        1.0206922639       -2.5499127753
 C          5.2438940065        1.6550761379       -3.5340762098
 C          6.2005543451        2.5971851745       -3.1889963811
 C          6.4253829579        2.8826768029       -1.8546200733
 C          5.7142692433        2.2577292946       -0.8399655585
 C          6.0065595797        2.5997766543        0.6056648478
 C          5.7246778704        4.0984222724        0.8243441362
 C          7.4879329949        2.2897690491        0.8944744297
 C          5.1498251509        1.7975743766        1.5632931650
 C          5.2963002479        1.9800623289        2.9315138331
 C          4.5405107323        1.2728436661        3.8486966420
 C          3.6099119636        0.3492338088        3.3984214542
 C          3.4378662339        0.1487928662        2.0477108132
 C          4.1989232321        0.8680641290        1.1140818480
 C          1.7339055358        0.2673819154       -1.0653445184
 C          0.7071722654       -0.6013559624       -1.3567813975
 C         -2.1143879183       -2.4663960161        0.7745052784
 C         -3.1433948115       -1.5945674881        0.5207650800
 C         -4.6347112860        1.3708090057        1.2331159184
 C         -4.3100370506        1.1313181810        2.5765251631
 C         -4.9436059041        1.8150182245        3.5888270563
 C         -5.9219697275        2.7487043510        3.2846298105
 C         -6.2627203857        2.9707863305        1.9630215011
 C         -5.6424612368        2.2960200999        0.9208701896
 H         -4.7848598739        4.2873763858       -0.7418241086
 H         -6.3949330948        4.6827291855       -0.1380429877
 H         -6.1674156953        4.2816063555       -1.8374429022
 H         -8.1665999352        2.8086336141        0.0448615867
 H         -7.7252013106        1.1604089612       -0.4026187591
 H         -7.9206878516        2.3936985853       -1.6482390684
 H         -6.3334208421        2.5200507845       -3.1863097729
 H         -5.1091819679        1.2257000733       -4.8512923284
 H         -3.3174898287       -0.3381757692       -4.1228540922
 H         -2.8024231173       -0.5858943098       -1.7681238975
 H         -1.5404158931        1.3378255128        1.0926280503
 H          0.3038828713       -0.2409021178        1.5898126711
 H          0.8512786217       -5.3781033552        2.2696602417
 H          0.4565065687       -7.5177686940        1.0834330559
 H         -0.4426439366       -7.5093978484       -1.2118614597
 H         -0.8293294913       -5.3621279218       -2.3859020763
 H          2.3206329618       -3.5374138384       -0.8071938352
 H          4.1480448337       -1.9801794582       -0.2930142823
 H          3.7819851462        0.2811691572       -2.8155227999
 H          5.0644497744        1.4133531464       -4.5705446434
 H          6.7717352312        3.1018494193       -3.9529282094
 H          7.1784264710        3.6141221317       -1.6037583064
 H          5.9423044568        4.3874074148        1.8485780926
 H          4.6767529712        4.3117960954        0.6222010656
 H          6.3333196344        4.7069011015        0.1613090383
 H          8.1392681791        2.8608488863        0.2390672684
 H          7.6819197916        1.2308176843        0.7352989763
 H          7.7407844480        2.5338789196        1.9221755520
 H          6.0184243038        2.6936227320        3.2984955693
 H          4.6800306505        1.4403290412        4.9057877356
 H          3.0153077662       -0.2203474599        4.0951612121
 H          2.7203496374       -0.5845452887        1.7165579244
 H          1.5917672669        1.3358238307       -1.1455617694
 H         -0.2527183637       -0.2326920699       -1.6839219270
 H         -2.2904269013       -3.5294855619        0.7112273279
 H         -4.1221011964       -1.9612044416        0.2490106166
 H         -3.5573477856        0.3965780059        2.8142747730
 H         -4.6775591433        1.6177893182        4.6160152127
 H         -6.4219513543        3.2932070612        4.0707749287
 H         -7.0363908971        3.6908621972        1.7442964047
  94
  -140.755401495100       0.144935429790727      !
 C         -5.7487850862        4.0208733286       -0.9985101670
 C         -6.0176204485        2.5650421960       -0.5719820835
 C         -7.5275227858        2.2641866998       -0.6291967655
 C         -5.2977928376        1.6410433363       -1.5319699282
 C         -5.6201187079        1.6743736591       -2.8817643014
 C         -4.9788724886        0.8717929965       -3.8072731166
 C         -3.9731787081        0.0164411681       -3.3852363340
 C         -3.6296869385       -0.0387679358       -2.0535866770
 C         -4.2942746004        0.7562034388       -1.1072637803
 N         -3.9434703732        0.6754840859        0.2277077906
 C         -2.9084165224       -0.2245838531        0.6026903486
 C         -1.6665449720        0.2582313993        1.0059108161
 C         -0.6445737153       -0.6207129420        1.2817968360
 C         -0.8265868361       -2.0041815400        1.1160368225
 C          0.3098902146       -2.9079626788        1.3313787554
 O          1.2634055598       -2.6075233537        2.0578789105
 C          0.2202126638       -4.1961700042        0.6143945297
 C          0.5031175847       -5.4095203735        1.2343246639
 C          0.2681623091       -6.5930209223        0.5635756089
 C         -0.2512280729       -6.5788763083       -0.7286883620
 C         -0.4858307729       -5.3809265433       -1.3734232253
 C         -0.2022870135       -4.1816100809       -0.7271816582
 C         -0.2875022495       -2.8791482903       -1.4186069439
 O         -1.2414535079       -2.5615895708       -2.1375846180
 C          0.8529528942       -1.9844265202       -1.1882138461
 C          2.1315546423       -2.4654607238       -0.8668472020
 C          3.1541175681       -1.5956125722       -0.5818561214
 C          2.9311489763       -0.2170879277       -0.6255319145
 N          3.9580249254        0.6788628176       -0.2146839542
 C          4.6454941395        1.4021555217       -1.1635766859
 C          4.3837278129        1.1790542510       -2.5233111453
 C          5.0462266350        1.8921566430       -3.4960589718
 C          5.9891443411        2.8417662509       -3.1344076584
 C          6.2652880562        3.0510262937       -1.7957150466
 C          5.6164353615        2.3449248982       -0.7925910386
 C          5.9730349108        2.5988329138        0.6565046437
 C          5.6773586155        4.0738617134        0.9883249548
 C          7.4720253218        2.3003962409        0.8514231901
 C          5.1771977298        1.7198835865        1.5989462894
 C          5.3892420285        1.8175322068        2.9673011127
 C          4.6860728757        1.0452528810        3.8735987792
 C          3.7369897297        0.1471133179        3.4111111073
 C          3.5007959301        0.0299542870        2.0602536192
 C          4.2167125221        0.8065253212        1.1367781903
 C          1.6991319626        0.2741070671       -1.0470230056
 C          0.6775938509       -0.5988843222       -1.3439877722
 C         -2.1104614402       -2.4782063635        0.8054524134
 C         -3.1351415081       -1.6026133365        0.5481384278
 C         -4.5581196838        1.4423390771        1.1936978160
 C         -4.2059484991        1.2710702204        2.5406766562
 C         -4.7846292878        2.0381483273        3.5258140406
 C         -5.7355155395        2.9895796680        3.1913556690
 C         -6.1091592626        3.1407614167        1.8687363249
 C         -5.5460068952        2.3794340256        0.8541817062
 H         -4.6825344821        4.2313532848       -0.9453219256
 H         -6.2696256382        4.7171780836       -0.3476018188
 H         -6.0817234490        4.1928879757       -2.0178307993
 H         -7.9105615453        2.3952840454       -1.6369496644
 H         -8.0797523259        2.9247860468        0.0330713380
 H         -7.7119900527        1.2365541719       -0.3221602393
 H         -6.3918198193        2.3456112742       -3.2272075621
 H         -5.2577408762        0.9201652755       -4.8488926564
 H         -3.4498722204       -0.6117608864       -4.0886232537
 H         -2.8459656799       -0.7138020191       -1.7501266957
 H         -1.5093582938        1.3251085193        1.0792824135
 H          0.3230628596       -0.2602852611        1.5944625488
 H          0.8712028328       -5.4057595623        2.2497785041
 H          0.4699671726       -7.5362939464        1.0500454355
 H         -0.4518829130       -7.5111944229       -1.2362468352
 H         -0.8535420856       -5.3549815593       -2.3886633357
 H          2.3112473170       -3.5290535552       -0.8251530728
 H          4.1307819095       -1.9647296796       -0.3061564479
 H          3.6576168016        0.4326534774       -2.8041322023
 H          4.8297099442        1.7064805405       -4.5370143990
 H          6.5113220081        3.4095373665       -3.8890109375
 H          7.0099180406        3.7864384091       -1.5318001125
 H          5.9402384544        4.2989434667        2.0179601396
 H          4.6173744000        4.2792275097        0.8515844182
 H          6.2423047310        4.7370052977        0.3392918061
 H          8.0799096556        2.9247859232        0.2030047778
 H          7.6751741851        1.2578570146        0.6145895615
 H          7.7724644365        2.4834385824        1.8789502876
 H          6.1224794789        2.5150226293        3.3430012813
 H          4.8779583034        1.1454847465        4.9310022800
 H          3.1763753784       -0.4675402782        4.0975245925
 H          2.7654971324       -0.6824760021        1.7229124583
 H          1.5484841338        1.3421847708       -1.1160782897
 H         -0.2854416663       -0.2337861043       -1.6658490127
 H         -2.2927976945       -3.5409633184        0.7541117793
 H         -4.1179179991       -1.9663784613        0.2872383105
 H         -3.4758976607        0.5225291045        2.8043599697
 H         -4.4964426943        1.8924161284        4.5557473070
 H         -6.1911498544        3.6005812354        3.9552804106
 H         -6.8635261946        3.8736544003        1.6267150764
  94
  -140.755127453800       0.108451084956851      !
 C         -6.0821609962        3.9646442753       -0.8529380121
 C         -6.2364369921        2.4600008448       -0.5610759087
 C         -7.7036789644        2.0294209254       -0.7517316825
 C         -5.3742865934        1.6838194279       -1.5349873601
 C         -5.6011434033        1.8066800342       -2.8988725940
 C         -4.8421874493        1.1227255095       -3.8308459830
 C         -3.8218304911        0.2889158676       -3.4001200883
 C         -3.5705409381        0.1474849333       -2.0544051436
 C         -4.3415891696        0.8357961043       -1.1055746799
 N         -4.0670268150        0.6837595801        0.2394079639
 C         -3.0029442876       -0.1841214625        0.6169623301
 C         -1.7758004435        0.3345098407        1.0184077104
 C         -0.7293001577       -0.5156601894        1.2959516610
 C         -0.8752528006       -1.9040925167        1.1382371405
 C          0.2809751614       -2.7802401749        1.3639730021
 O          1.2289298257       -2.4536189995        2.0860625911
 C          0.2093086596       -4.0792754362        0.6628887635
 C          0.4917725567       -5.2859384865        1.2944956963
 C          0.2651091374       -6.4746701477        0.6293174499
 C         -0.2453884816       -6.4712370595       -0.6663831982
 C         -0.4796415161       -5.2787529122       -1.3222039184
 C         -0.2042080532       -4.0754303345       -0.6813168413
 C         -0.2801027574       -2.7717571472       -1.3734098013
 O         -1.2293848639       -2.4423869916       -2.0924527441
 C          0.8745528773       -1.8948232034       -1.1430111086
 C          2.1456578193       -2.4037678689       -0.8349655393
 C          3.1916263430       -1.5569918092       -0.5671601794
 C          3.0001072642       -0.1743442254       -0.6142923382
 N          4.0639493276        0.6927379218       -0.2348157153
 C          4.7856858000        1.3469132068       -1.2078263592
 C          4.4806277837        1.1259325865       -2.5588064594
 C          5.1781746008        1.7706535202       -3.5545971480
 C          6.2001336584        2.6473762488       -3.2252224689
 C          6.5164437651        2.8549358803       -1.8951066431
 C          5.8323670457        2.2182587794       -0.8691815234
 C          6.2352946329        2.4649056948        0.5691941774
 C          6.0779135626        3.9659024381        0.8779253823
 C          7.7051884581        2.0373792186        0.7453992382
 C          5.3823023997        1.6758894732        1.5408445176
 C          5.6193297727        1.7840255724        2.9042448511
 C          4.8679648348        1.0892755384        3.8343933306
 C          3.8444259627        0.2601820156        3.4022725657
 C          3.5831859714        0.1331667508        2.0569681084
 C          4.3474666572        0.8312841505        1.1098655815
 C          1.7716952437        0.3445414547       -1.0115500897
 C          0.7262517360       -0.5057635724       -1.2928134476
 C         -2.1453264502       -2.4133385723        0.8266642819
 C         -3.1924284053       -1.5667015861        0.5625232568
 C         -4.7964046736        1.3267415320        1.2140714132
 C         -4.4992054896        1.0930452975        2.5646330145
 C         -5.2050870450        1.7256160302        3.5623367488
 C         -6.2273296242        2.6028825029        3.2351649339
 C         -6.5352075353        2.8236227854        1.9051930055
 C         -5.8426905371        2.1993099997        0.8773393591
 H         -5.0442711923        4.2635544585       -0.7193249091
 H         -6.6989633474        4.5545968804       -0.1809204539
 H         -6.3762808852        4.1928071180       -1.8733391968
 H         -8.3593104935        2.5784079417       -0.0818066716
 H         -7.8077872798        0.9668541834       -0.5407732621
 H         -8.0300822002        2.2100189980       -1.7718397924
 H         -6.3914754129        2.4526304823       -3.2502778382
 H         -5.0469288561        1.2403883303       -4.8840494182
 H         -3.2184783267       -0.2568367778       -4.1082210490
 H         -2.7809100467       -0.5152130884       -1.7389266687
 H         -1.6498386906        1.4054994994        1.0913208875
 H          0.2292837247       -0.1287030261        1.6052595228
 H          0.8523992324       -5.2744133051        2.3125212751
 H          0.4657796411       -7.4140458182        1.1236702988
 H         -0.4399118384       -7.4079527209       -1.1681868054
 H         -0.8395422388       -5.2615225602       -2.3403845563
 H          2.3018992789       -3.4709923459       -0.7928525815
 H          4.1635305974       -1.9472281147       -0.3039992121
 H          3.6921387231        0.4360351164       -2.8146099163
 H          4.9276544345        1.5877008405       -4.5883378716
 H          6.7518287932        3.1599496599       -3.9981470220
 H          7.3221817066        3.5323589446       -1.6566434957
 H          6.3770254238        4.1842031930        1.8990503089
 H          5.0383030229        4.2626992098        0.7533566163
 H          6.6888734926        4.5649799856        0.2086642888
 H          8.3540245177        2.5937947991        0.0750145686
 H          7.8109727175        0.9768859771        0.5250318419
 H          8.0388585605        2.2107938985        1.7644207287
 H          6.4116541298        2.4269019176        3.2568369058
 H          5.0806242750        1.1955049643        4.8872133916
 H          3.2462772911       -0.2931751740        4.1088782946
 H          2.7902574315       -0.5250910764        1.7406059532
 H          1.6440290838        1.4156721946       -1.0789154270
 H         -0.2329761374       -0.1185099482       -1.5996293956
 H         -2.2997342251       -3.4805976104        0.7783825535
 H         -4.1634171660       -1.9570364575        0.2960516183
 H         -3.7103796754        0.4027041523        2.8182978438
 H         -4.9608967044        1.5327854127        4.5958341621
 H         -6.7857074131        3.1057883190        4.0096582528
 H         -7.3410922483        3.5014300805        1.6683787536
