  94
       -141.42067069
 C         -5.6043991433        4.0895511713       -0.8994852353
 C         -5.9517512103        2.6286565605       -0.5538674668
 C         -7.4663881326        2.3922963909       -0.7058556329
 C         -5.2148593308        1.7185133864       -1.5147179757
 C         -5.4746255260        1.8064827270       -2.8754128626
 C         -4.8172237879        1.0137739916       -3.7982927404
 C         -3.8628258665        0.1081246443       -3.3618863495
 C         -3.5787837025        0.0007295371       -2.0194220039
 C         -4.2528099303        0.7939690373       -1.0786654134
 N         -3.9520942517        0.6710786656        0.2640701316
 C         -2.9175526566       -0.2264683449        0.6504872500
 C         -1.6762451585        0.2671773146        1.0407746782
 C         -0.6526876413       -0.6042171187        1.3333306961
 C         -0.8352632776       -1.9913948433        1.2038968076
 C          0.3017853541       -2.8869220723        1.4483240015
 O          1.2575514944       -2.5599615265        2.1600407446
 C          0.2111549198       -4.2004144063        0.7785215513
 C          0.4942689991       -5.3905656282        1.4417215026
 C          0.2585180702       -6.5971858040        0.8137803113
 C         -0.2613456420       -6.6292638755       -0.4779986898
 C         -0.4966647539       -5.4552489451       -1.1650942654
 C         -0.2126244809       -4.2337947507       -0.5619739827
 C         -0.3012329076       -2.9559666838       -1.2979852885
 O         -1.2590884086       -2.6643826053       -2.0226960060
 C          0.8391923704       -2.0525745201       -1.1051795135
 C          2.1195837414       -2.5191841449       -0.7702318102
 C          3.1456142914       -1.6378914423       -0.5359780166
 C          2.9234178748       -0.2635974539       -0.6467053269
 N          3.9571041529        0.6533672874       -0.3008654308
 C          4.6755880316        1.2693456507       -1.3003001809
 C          4.4446939571        0.9087882272       -2.6356780695
 C          5.1437106919        1.5074893325       -3.6586997973
 C          6.0908193730        2.4782563602       -3.3717816499
 C          6.3308732157        2.8277895156       -2.0555658587
 C          5.6446600515        2.2394810712       -1.0025936817
 C          5.9537621746        2.6507575491        0.4213313557
 C          5.6495154439        4.1527000681        0.5785269439
 C          7.4447008369        2.3790176032        0.6985573012
 C          5.1261165499        1.8781411204        1.4277224432
 C          5.2924129327        2.1225332065        2.7839448333
 C          4.5626550842        1.4454042814        3.7439005848
 C          3.6383799308        0.4900048349        3.3503951757
 C          3.4467556428        0.2285080817        2.0128095352
 C          4.1814041524        0.9168732611        1.0358694629
 C          1.6867344727        0.2094746721       -1.0739528506
 C          0.6612770520       -0.6750987643       -1.3179832032
 C         -2.1185390701       -2.4734510618        0.9037182048
 C         -3.1437410410       -1.6046392597        0.6243388484
 C         -4.6019348626        1.4053930845        1.2310711978
 C         -4.3093865796        1.1758490101        2.5834916815
 C         -4.9305052137        1.9025211609        3.5732730783
 C         -5.8611468488        2.8730597048        3.2363278024
 C         -6.1689720373        3.0878608044        1.9053958512
 C         -5.5639257798        2.3666473103        0.8857659495
 H         -4.5334829355        4.2511413925       -0.7916887665
 H         -6.1240072556        4.7771320414       -0.2379797483
 H         -5.8847730388        4.3212023212       -1.9231425140
 H         -7.7068311376        1.3612580350       -0.4543553059
 H         -7.7879148764        2.5807240897       -1.7258173302
 H         -8.0295880484        3.0468637950       -0.0470779353
 H         -6.2081917414        2.5135945226       -3.2319851779
 H         -5.0463888827        1.1061292981       -4.8490299715
 H         -3.3349213007       -0.5186982967       -4.0631567527
 H         -2.8369075356       -0.7136157766       -1.7005684803
 H         -1.5220391363        1.3356835351        1.0929633036
 H          0.3154682218       -0.2359746306        1.6348736995
 H          0.8631088029       -5.3504791602        2.4560755736
 H          0.4596877840       -7.5224741263        1.3338296497
 H         -0.4627729819       -7.5791221584       -0.9515509084
 H         -0.8649522566       -5.4655244425       -2.1803906036
 H          2.2987901858       -3.5797902639       -0.6794903149
 H          4.1242228090       -1.9942891124       -0.2507125713
 H          3.7131886163        0.1474002446       -2.8557494093
 H          4.9525662459        1.2161878293       -4.6801525551
 H          6.6426844207        2.9558605143       -4.1666684804
 H          7.0759247594        3.5811479889       -1.8500844438
 H          5.8852392042        4.4920601913        1.5832138603
 H          4.5935496580        4.3383840403        0.3918748227
 H          6.2313511466        4.7405154188       -0.1258555717
 H          8.0749965153        2.9359261277        0.0114313042
 H          7.6561451402        1.3185348938        0.5773511603
 H          7.7087671305        2.6674180527        1.7118344826
 H          6.0092771212        2.8619865597        3.1068597668
 H          4.7172038110        1.6609417974        4.7901628647
 H          3.0640658735       -0.0565059756        4.0817745809
 H          2.7348136381       -0.5280200200        1.7252474564
 H          1.5370755210        1.2732955258       -1.1925105985
 H         -0.3050212340       -0.3240225366       -1.6456143175
 H         -2.3006991766       -3.5371402620        0.8778259059
 H         -4.1258957729       -1.9747597323        0.3702618365
 H         -3.5921320399        0.4142867680        2.8454647697
 H         -4.6909517794        1.7112615206        4.6080971345
 H         -6.3496038073        3.4526912756        4.0043128360
 H         -6.9028602692        3.8406060759        1.6611490712
