  32
  -50.3791218675000        1.00000000000000      !
 C         -5.3342111596        0.6232231484       -0.0025580810
 C         -4.5975579267        1.8047913549       -0.0024034537
 C         -3.2157810658        1.7849340065       -0.0008108262
 C         -2.5675754293        0.5576015018        0.0007294065
 C         -3.3268960408       -0.6354995589        0.0004953027
 C         -4.7118332100       -0.6119463309       -0.0010303528
 N         -2.4684140305       -1.7075817430        0.0022339059
 C         -1.1723039825       -1.2575301612        0.0014650511
 C         -0.0000020637       -1.9949701984        0.0008167256
 C          1.1723393694       -1.2575707802        0.0002310722
 N          2.4683703017       -1.7076698165       -0.0005758598
 C          3.3268064672       -0.6354823197       -0.0017011092
 C          4.7117745982       -0.6117862867       -0.0032569556
 C          5.3341698591        0.6232264767       -0.0022123516
 C          4.5976062071        1.8045201501        0.0010081169
 C          3.2158662578        1.7849603165        0.0024808808
 C          2.5675862651        0.5576930537        0.0011162166
 C          1.1837335365        0.1655598010        0.0016104038
 C         -0.0000096339        0.8853461532        0.0020926668
 C         -1.1836872542        0.1655402109        0.0015089041
 H         -6.4130498910        0.6728084622       -0.0034932002
 H         -5.1193345051        2.7505175180       -0.0033606232
 H         -2.6492162905        2.7041007246       -0.0011554244
 H         -5.2861826056       -1.5267304719        0.0002288190
 H         -2.7464899800       -2.6737186257       -0.0005835430
 H         -0.0000454144       -3.0747454393       -0.0001058188
 H          2.7465616913       -2.6738600031       -0.0071410111
 H          5.2861305920       -1.5264085191       -0.0061632289
 H          6.4131089429        0.6728905455       -0.0048751006
 H          5.1194972511        2.7499714476        0.0010647076
 H          2.6493785416        2.7042160315        0.0046666645
 H         -0.0000461081        1.9639775766        0.0028624586
