  64
       -102.73677708
 O          5.7585156339        1.9852461794        1.4274960715
 S          5.7328328779        0.5569644023        1.2429803734
 O          6.3902429418       -0.2766849144        2.2166389490
 C          6.4101354038        0.1790549079       -0.3801166824
 C          6.9561957668       -1.0692113010       -0.6094616952
 C          7.4259817176       -1.3796529478       -1.8743428492
 C          7.3373230118       -0.4430989936       -2.8928995318
 C          6.7875370249        0.8066476412       -2.6511268499
 C          6.3173880163        1.1204295777       -1.3871780023
 C          4.0496403215        0.0203133085        1.0516211951
 C          3.7028655795       -1.2999921044        1.3375467319
 C          2.4234073536       -1.7352374520        1.1304304341
 C          1.4091871967       -0.8652092774        0.6211495188
 C          0.0802819915       -1.3012862239        0.4177960807
 C         -0.2604452653       -2.7049979831        0.3788626588
 C         -1.5257780558       -3.1523797844        0.1910065610
 C         -2.5853434604       -2.2183937544        0.0367614033
 C         -2.2645591682       -0.8138216082        0.0696135819
 C         -1.0023589326       -0.3681948801        0.2414822330
 C         -3.5270948677       -0.0036418632       -0.1073104350
 C         -3.4768388875        0.9368128601       -1.2873919621
 C         -3.2489226061        0.6344410042       -2.6121283889
 C         -3.2454645003        1.6717711320       -3.5346773495
 C         -3.4675678457        2.9811761655       -3.1329277041
 C         -3.6967758195        3.2889214181       -1.8016952746
 C         -3.7002067117        2.2592549882       -0.8746476071
 C         -3.9008532228        2.2653120232        0.5651173343
 C         -4.1504508951        3.3026699075        1.4489114837
 C         -4.2946394529        3.0062748717        2.7945308124
 C         -4.1918275922        1.7006573227        3.2526034256
 C         -3.9434634038        0.6556328278        2.3731374105
 C         -3.8000046663        0.9467064204        1.0342413141
 C         -4.5729449345       -1.0814897399       -0.2475097117
 C         -5.9205864109       -0.9448080719       -0.4390450959
 C         -6.7045784542       -2.0970229400       -0.5385702919
 C         -6.1263260227       -3.3669959742       -0.4440473921
 C         -4.7755715532       -3.5243480001       -0.2530851748
 C         -3.9654990204       -2.3731496405       -0.1520406383
 C          1.8107351419        0.4776054605        0.3364355899
 C          3.0959070213        0.8980230261        0.5364105981
 H          7.0228579237       -1.7673975513        0.2100674206
 H          7.8621182672       -2.3486460526       -2.0662430503
 H          7.7035146985       -0.6866273901       -3.8793064141
 H          6.7278543087        1.5348456149       -3.4460560871
 H          5.8983903088        2.0880137193       -1.1604383525
 H          4.4591392483       -1.9486315344        1.7515595140
 H          2.1690192871       -2.7459182504        1.4050899902
 H          0.5356987806       -3.4269171041        0.4634074599
 H         -1.7389532357       -4.2101938720        0.1499471611
 H         -0.8144306275        0.6923328772        0.2905641431
 H         -3.0760101099       -0.3853226967       -2.9242774837
 H         -3.0675733272        1.4571519227       -4.5780369720
 H         -3.4607645085        3.7710402455       -3.8697590415
 H         -3.8680614727        4.3096041699       -1.4940091821
 H         -4.2305698622        4.3205454208        1.0976504592
 H         -4.4892115468        3.8022525190        3.4982977335
 H         -4.3061694437        1.4949916440        4.3065111247
 H         -3.8630902766       -0.3611162762        2.7292825821
 H         -6.3731880535        0.0334421817       -0.5112248458
 H         -7.7692685250       -2.0065552619       -0.6887795751
 H         -6.7612647159       -4.2374759490       -0.5238863106
 H         -4.3319835468       -4.5055075349       -0.1802851630
 H          1.0967243022        1.1683193544       -0.0815763330
 H          3.3958982997        1.9123901704        0.3244846183
