141
 energy: -204.881625295072 gnorm: 0.000055209803 xtb: 6.7.1 (edcfbbe)
C          -13.20565505726044       -4.27908115452854        3.16767758255574
C          -13.39993907242873       -2.77486388938856        3.41196477835086
C          -13.17544746976017       -2.45648847018024        4.89796952140875
C          -14.84924468045522       -2.42109174372287        3.06383140465912
C          -12.39089241160722       -2.00055234959653        2.57565511771101
C          -11.02299411337685       -2.22441652005602        2.78453741330810
C          -10.03759386732817       -1.57613570115106        2.06754735477828
C          -10.42973523569407       -0.67185313308756        1.09123282580801
C          -11.79992717453741       -0.40660385310656        0.88041440976291
C          -12.76968193502704       -1.07179115009710        1.61732484095084
C          -11.86630124160528        0.60100775661306       -0.14468104972276
C          -12.92414249426668        1.23920260170692       -0.77688889519350
C          -12.67101575617213        2.17274564364440       -1.77132530958121
C          -13.78072356326271        2.91546122938104       -2.50217078707281
C          -13.70739051275184        2.58431491090040       -4.00055658576922
C          -15.17643600293393        2.53377940145599       -1.99905268641574
C          -13.59724027752089        4.42646096584243       -2.29421892779532
C          -11.33844517515287        2.43014755259547       -2.12171522663928
C          -10.26763902454681        1.81039009454810       -1.50983248041151
C          -10.53271614811857        0.89983825852420       -0.49728262706006
N           -9.67140775594140        0.12446861996596        0.25495931349388
C           -8.27454685650229        0.14103961316542        0.17852958285055
C           -7.55802316193368       -1.05065640249680        0.07457615441442
C           -6.18181826565407       -1.02931894275693       -0.00015220061885
C           -5.47583114876401        0.17695494861133        0.01222214413779
C           -4.01723079351965        0.19241526777369       -0.08341153083460
C           -3.24209715694151       -0.79186105437485        0.53901226278777
C           -1.87105352764336       -0.79062265067593        0.43394325632246
C           -1.20178863271627        0.19429865506213       -0.30632885928319
C            0.24781558448993        0.20081580310088       -0.42113093519948
C            0.94562768139336        1.40991153767397       -0.35502762021895
C            2.32385536886776        1.49057569084741       -0.37477477622543
C            2.94325938315186        2.81907507215102       -0.44794549534909
C            3.93403239322712        3.08959343320468       -1.39475665621775
C            4.48546990690479        4.35168669836814       -1.49537348775205
C            4.06152937296726        5.36923716452044       -0.65482924020591
C            3.07299303956204        5.11588590411880        0.28274405642085
C            2.51344596824060        3.85599771471659        0.38116829971794
C            3.09304723948145        0.28710430181710       -0.43357689440188
C            4.51681512270237        0.26322552462935       -0.29267143027267
C            5.31003381814319       -0.72268861611984       -0.93745457885047
C            6.66516228244059       -0.76345992545251       -0.81173306058406
C            7.35808655317278        0.16907526923126        0.01007001592578
C            8.74873833668973        0.21338301734545        0.21150028505463
N            9.35051308869585        1.27895724279813        0.76427301006784
C           10.65908245800646        1.03090322015141        0.75177717481723
C           11.71099819931128        1.88791672720698        1.19025279258071
C           11.43496748602099        3.16535180653669        1.68556517778744
C           12.45782387248946        3.99598552934136        2.08188784392230
C           13.77233354024243        3.55043665822570        1.98034506514838
C           14.05554470618836        2.29135562459081        1.49604910910173
C           13.03994403255922        1.41340004994792        1.08900551490676
C           13.30377464052713        0.07186438521539        0.59810687175252
C           14.60159147379089       -0.44783812535752        0.54741994387182
C           14.86544776212369       -1.72885766435892        0.11508258724003
C           13.81813834130062       -2.56201116584812       -0.27773015559751
C           12.53093360529628       -2.09324169557380       -0.25224454376095
C           12.23578534221986       -0.77831474537885        0.16357949883934
C           10.92851084358384       -0.24913799735149        0.20609858525979
N            9.70099405196340       -0.75781145221061       -0.14176622286910
C            9.42610639298850       -2.03138257282615       -0.68079475401858
C            8.81385596806802       -2.99924089823439        0.11042646119046
C            8.53673320758292       -4.24515672741693       -0.42264931473663
C            8.86843563155845       -4.53142391304006       -1.73744136230927
C            9.47922445256488       -3.56740854753754       -2.52474833791608
C            9.75950664710464       -2.31772257639145       -2.00289369123733
C            6.56296464923777        1.15988426179049        0.66080309170602
C            5.21330930316218        1.20342588932682        0.51745680700153
C            2.38011816527477       -0.91888294087714       -0.58994623242039
C            1.00619373398375       -0.99031931829653       -0.58468049151017
C            0.36565356687201       -2.29527271599646       -0.81851434875958
C            0.76997408673408       -3.42265531650485       -0.10639022926487
C            0.18497386713386       -4.65309695757586       -0.34365725162784
C           -0.80577693573006       -4.77991152266810       -1.30343438806195
C           -1.20414455599369       -3.66815717118630       -2.02846756423719
C           -0.62483101280664       -2.43644279614907       -1.78959492967076
C           -1.97903378221534        1.19229989792438       -0.90983719611152
C           -3.35071067978264        1.18999246987207       -0.80237032498984
C           -6.20564725817794        1.36468521369779        0.11275754637030
C           -7.58107302986895        1.35052171536992        0.20225668311855
H          -12.21107060020748       -4.60424136475394        3.46027615173392
H          -13.34337629724917       -4.50971599445711        2.11289922679091
H          -13.93247530363181       -4.84862720800344        3.74335504028662
H          -13.90771211016162       -2.98185735772376        5.50781169943782
H          -12.18367431995839       -2.75757709758460        5.22399267993024
H          -13.28228349595005       -1.38774289603475        5.07429265671313
H          -15.06834362767546       -2.64733438770051        2.02268697584794
H          -15.52377840456789       -3.00855045871112        3.68377495965530
H          -15.05213843441191       -1.36918725103183        3.25219293808223
H          -10.71202834715221       -2.92988049978564        3.53992025838623
H           -8.99469983456204       -1.76374031842640        2.27446613318959
H          -13.80606869072909       -0.84658938347083        1.42958089025114
H          -13.92920842080322        0.98873372557682       -0.48158836651743
H          -13.81003642156987        1.51171220221564       -4.15441130228592
H          -12.76193496526654        2.90098496661149       -4.43236787021209
H          -14.51075176163314        3.08794503796240       -4.53443155246040
H          -15.28859745869904        2.76562573576667       -0.94224616606228
H          -15.37436528032625        1.47590928573914       -2.15674138829517
H          -15.92620766537318        3.10012593399458       -2.54825063995692
H          -14.39297898940428        4.97264361710825       -2.79675248765537
H          -12.64645609716794        4.77049726137260       -2.69183340383034
H          -13.63014953170944        4.66686431925410       -1.23315972302903
H          -11.12569741995121        3.13963701307723       -2.90676181339635
H           -9.25736370557171        2.02506427702890       -1.82387150277206
H           -8.09096565284159       -1.98876722750061        0.02753668206555
H           -5.64271049273608       -1.95910058241166       -0.10547025244057
H           -3.72571695412908       -1.54908873858470        1.13901288531589
H           -1.29732595666596       -1.54295610467351        0.95412153793557
H            0.37921821928156        2.32810657645151       -0.28801012267972
H            4.25919438730910        2.30398663363254       -2.06156141894663
H            5.25050926103789        4.54423377383062       -2.23397604800741
H            4.49858277436076        6.35418967049663       -0.73093915811310
H            2.73902308046610        5.90444849891794        0.94226082837903
H            1.75586100262874        3.65983620823870        1.12695027303637
H            4.83062830262646       -1.42293929165378       -1.60624137090056
H            7.21984244223731       -1.49100895959292       -1.38147718790452
H           10.40159598084024        3.47260098445766        1.73928785763482
H           12.24616009314452        4.98334644539870        2.46450161996282
H           14.58273947333572        4.19756883824157        2.28387176026061
H           15.09002856631322        1.99364572469579        1.43433290654887
H           15.43405269305411        0.16088592054428        0.86155321100618
H           15.88252512857600       -2.09105875302430        0.09109738505945
H           14.01964604443186       -3.57393214010611       -0.59705619501342
H           11.72381151774457       -2.74526097386166       -0.54264729041125
H            8.55633259965433       -2.76255237488645        1.13242355739072
H            8.06296265942446       -4.99498957250266        0.19289644172029
H            8.65046045827248       -5.50500070767824       -2.14947888963787
H            9.73631360694667       -3.78680726790942       -3.55019616716008
H           10.23482387662291       -1.55800615428059       -2.60658908553272
H            7.07506171872103        1.86321792252899        1.29846005708174
H            4.64595878666377        1.93509444965667        1.07178551264231
H            2.93772650462715       -1.83868848095849       -0.68990958555713
H            1.53288722121446       -3.32446800102429        0.65343767350442
H            0.50174341876158       -5.51654308087652        0.22426231953588
H           -1.26393665283396       -5.74102823035248       -1.48686893082575
H           -1.97006696739006       -3.76186803882002       -2.78515527117674
H           -0.93128996233610       -1.57517450504691       -2.36542580140691
H           -1.49459966746247        1.95302832797760       -1.50528675463619
H           -3.92349259447784        1.95084745791433       -1.31277124014450
H           -5.68268723949803        2.30846748555959        0.15551817972698
H           -8.12847646427983        2.27476517748679        0.31355437958199
