141
 energy: -204.967699398269 gnorm: 0.000057499204 xtb: 6.7.1 (edcfbbe)
C          -12.60850661049080       -4.19097263113787        2.46914365652948
C          -12.74219096311758       -3.67305631489904        1.02912890325575
C          -14.13598251819759       -3.05608378526943        0.87539935587347
C          -12.62992597864293       -4.84529599142320        0.04274628226958
C          -11.62608745391653       -2.67501501622517        0.74956096973846
C          -10.29442593522230       -3.09945922536492        0.86165680925847
C           -9.21857800780805       -2.26651423578720        0.63082275039494
C           -9.47764959018405       -0.95058934893526        0.27878980671711
C          -10.80817465062760       -0.50244843567342        0.13651182632444
C          -11.87168147164539       -1.36366352494345        0.37665755915250
C          -10.73227164233128        0.87207441828895       -0.27644203104044
C          -11.69538612077969        1.83645367906993       -0.54662718688695
C          -11.30735450314759        3.11704836671120       -0.90507829585618
C          -12.30787584199198        4.22410720377550       -1.21039989132175
C          -12.07338663123733        4.74120282663509       -2.63766681513816
C          -13.76068092917697        3.74792648762534       -1.11263567142878
C          -12.11330153732491        5.36908016438959       -0.20484918287432
C           -9.93687382112777        3.40515765227760       -0.97335227175050
C           -8.95845720010589        2.46765870744444       -0.71236923293302
C           -9.35968871620700        1.18429332950549       -0.37385228348653
N           -8.60877113228455        0.07583632948543       -0.03478484661954
C           -7.20863833567391        0.01365641664472        0.00280859160949
C           -6.45751512857182        0.41898644957138       -1.09720945401938
C           -5.07871726351324        0.36850876535649       -1.05204402192351
C           -4.41571573680074       -0.08222622376450        0.08796619831351
C           -2.94669379375244       -0.10850334728778        0.13895912712423
C           -2.26896126828646        0.35185164746951        1.26585461749863
C           -0.88894306092638        0.35700140467168        1.30541227781711
C           -0.14458926198214       -0.12229956725907        0.23068082510852
C            1.32747688495043       -0.08556819430504        0.26588512770099
C            1.95945620137464        1.11435142012534        0.56823662425819
C            3.34184661524511        1.24882366698981        0.55145291874624
C            3.93389648619149        2.57337844012041        0.81155291827796
C            4.85187808027036        3.12946477626707       -0.07577798690164
C            5.38893349861169        4.38057685060860        0.16335413099812
C            5.01827221318830        5.09464665365609        1.29126187718854
C            4.09799605786911        4.55462397778474        2.17418599493842
C            3.55511249594379        3.30539116103551        1.93366534431751
C            4.12582410088350        0.13072704447071        0.23514911921265
C            5.59689637496973        0.18861728204326        0.23693364714163
C            6.32157800526744       -0.31950032857398       -0.83827554740460
C            7.70108681772902       -0.26559269671042       -0.85642682010366
C            8.39758310261636        0.28603936897637        0.21719754809807
C            9.84682977920103        0.40011853486643        0.24963324895209
N           10.46519898922451        1.42072720918131        0.79381938716184
C           11.79344049986056        1.18919104603642        0.62117953746124
C           12.88051282193516        2.02604748471989        0.99995538471969
C           12.66449633320621        3.25960635438208        1.62460898336668
C           13.72483567469670        4.06750566081776        1.95217421867918
C           15.02052402398222        3.65063860905930        1.65178963128578
C           15.24514570559926        2.43777642860105        1.04296914840689
C           14.18838848070990        1.57848984094324        0.70250043053037
C           14.39490203908819        0.27732061440391        0.08906302610375
C           15.68207080241955       -0.22840001447741       -0.14510900403954
C           15.89004771939305       -1.47314315998723       -0.69107668061410
C           14.80577207925685       -2.28236522046002       -1.01619669304861
C           13.52864713007006       -1.82317748266917       -0.80681011095969
C           13.29366935598096       -0.54670568831697       -0.27501903031005
C           11.99092338035264       -0.02325732035803       -0.03737157913671
N           10.72742396924559       -0.51562283003903       -0.28144715879543
C           10.35802755953182       -1.71750968874624       -0.92469379162008
C            9.71401838548398       -2.71433922074088       -0.20172159427128
C            9.32405047317859       -3.87906458422154       -0.83948421399728
C            9.57390504630336       -4.05135812256593       -2.19096270216946
C           10.21589268846046       -3.05571355135375       -2.91063572358975
C           10.60667441452717       -1.88634555996423       -2.28390670925083
C            7.67284633716860        0.79442810560255        1.29714208674362
C            6.29588085189477        0.74284390749128        1.30837118334566
C            3.49373411249602       -1.07120159438871       -0.06085124037462
C            2.11069550754267       -1.20407113383964       -0.04882685059702
C            1.51002480143049       -2.52083501866905       -0.32632647939167
C            0.55556778440346       -3.06371263832594        0.53031207347799
C            0.00552511189183       -4.30530271715968        0.27145942465389
C            0.39926480196222       -5.02356918891954       -0.84590897580393
C            1.35451829684065       -4.49647895586629       -1.69898172296333
C            1.90984409939844       -3.25670442350324       -1.43884338498651
C           -0.82095605501268       -0.59112271478062       -0.89283340944216
C           -2.20017088872581       -0.57629943012184       -0.94081621486084
C           -5.17632885982468       -0.49203304934566        1.18142624392842
C           -6.55560697685014       -0.44777284116527        1.14255669749596
H          -12.65864334672966       -3.36198473929684        3.17274533411719
H          -11.66493155884385       -4.70834445485258        2.61933767890542
H          -13.41611229737661       -4.88470869914799        2.69466582599764
H          -14.89156280589619       -3.80937353003561        1.09073051782383
H          -14.27696388007802       -2.23059905567667        1.56966559096455
H          -14.29703541728862       -2.70076960879677       -0.13997545871911
H          -12.70682894369599       -4.48356045750316       -0.98098385500104
H          -11.68135488012247       -5.36452355485229        0.14921134521255
H          -13.43127522989273       -5.56060165874430        0.21750121982306
H          -10.08717453338364       -4.12269573553204        1.13677382442441
H           -8.20749566400919       -2.63730820831022        0.71382159719273
H          -12.87468325857027       -0.98786433802728        0.26078753679146
H          -12.73433985053884        1.56391116299144       -0.46366081007304
H          -12.18411521294694        3.92962996966182       -3.35451848925981
H          -11.07762051763973        5.16121393499427       -2.74994537781325
H          -12.79781042754994        5.51662935352976       -2.87903732535547
H          -13.99394193956604        3.40591411316777       -0.10676997864457
H          -13.95680934658516        2.94348277872270       -1.81815641262992
H          -14.42918187764564        4.57357656170345       -1.34943241454371
H          -12.83421537872789        6.16199986619664       -0.39450512844402
H          -11.11523695860400        5.79307529231501       -0.27476411907006
H          -12.25832431290623        5.00582594152647        0.81092882659021
H           -9.61876193399488        4.40287227438638       -1.23596685384243
H           -7.91323544547568        2.73526256510954       -0.76069811032241
H           -6.96226855489163        0.76523666402675       -1.98713914554748
H           -4.50514292013137        0.69751608159856       -1.90624175646358
H           -2.83100160633563        0.73281594265044        2.10651818505176
H           -0.37743231701680        0.72234234534791        2.18493910698524
H            1.35310312178379        1.98399100503280        0.77954519433963
H            5.13674632483538        2.58023950922846       -0.96149136015112
H            6.10097375774418        4.79980204834870       -0.53298953662616
H            5.44325013078986        6.06985034539774        1.47944973483429
H            3.80312165262004        5.10864547317082        3.05407640700872
H            2.84536580060068        2.88135218003662        2.63015820083121
H            5.79518882678299       -0.73537655384386       -1.68541560729754
H            8.23188778523481       -0.63144880927846       -1.72203026008266
H           11.64512930033739        3.54945600385911        1.82998944722677
H           13.56080136188795        5.02068921512740        2.43330194368627
H           15.85824492251385        4.28669246464814        1.89961489387112
H           16.26428767788814        2.15989611824135        0.82602239756150
H           16.54512713530546        0.36251843084280        0.11560016681273
H           16.89709320822777       -1.82736201867426       -0.85630394605679
H           14.96589044528180       -3.26875529796663       -1.42611845429332
H           12.69155302486717       -2.45985022975094       -1.04380851735004
H            9.52255396015535       -2.56819341030783        0.85122276144301
H            8.82500773187413       -4.65316959096273       -0.27639749056362
H            9.26881886167867       -4.96142251908776       -2.68475346500103
H           10.41043570195573       -3.18604476399488       -3.96461044921545
H           11.10599094741536       -1.10216778578685       -2.83488192628974
H            8.21448699144030        1.22972398312979        2.12289761258249
H            5.75225457974120        1.12880150454460        2.15762980773812
H            4.10022926360881       -1.94106818013345       -0.27048168781545
H            0.25288390218801       -2.51195615115847        1.40829683780913
H           -0.73378984110429       -4.71495934296698        0.94478595521950
H           -0.03515197581593       -5.99160924607739       -1.04944404223568
H            1.66689747756326       -5.05323387382235       -2.57114842075208
H            2.64634162711363       -2.84262053194570       -2.11316180685341
H           -0.25726910342050       -0.95715217827996       -1.73856363640600
H           -2.70862451051265       -0.94842189336303       -1.81858826271175
H           -4.67995879594775       -0.85815428499432        2.06828550297996
H           -7.13641698461988       -0.75694369550337        1.99915894731071
