141
 energy: -204.968229988351 gnorm: 0.000054904079 xtb: 6.7.1 (edcfbbe)
C          -13.21381956791612       -4.19101413841259        3.22545289136223
C          -13.39305551411575       -2.67763018993027        3.41819657342033
C          -13.15916064351452       -2.31072328299567        4.89140109086575
C          -14.84109414703156       -2.32322006374474        3.06528268822199
C          -12.38166761963412       -1.94079688142633        2.55003969944972
C          -11.01443712754922       -2.16610579236627        2.76360620607298
C          -10.02689615196115       -1.54940113611134        2.02259028708805
C          -10.41520825200188       -0.67572346141890        1.01829636758436
C          -11.78375455730475       -0.41295608874254        0.79690571520729
C          -12.75629952391919       -1.04795759240533        1.55932383757140
C          -11.84585503384472        0.55603594707331       -0.26274200357242
C          -12.90105070533074        1.17550763127449       -0.92094621671355
C          -12.64373127417313        2.07165387239599       -1.94553952773201
C          -13.74989515509004        2.78875967776687       -2.70832792084030
C          -13.67268096911160        2.40054637039196       -4.19264999388629
C          -15.14797938217296        2.42873734602630       -2.19576455559607
C          -13.56616460049369        4.30644494054541       -2.55831359218669
C          -11.30927363540040        2.31610571600002       -2.29932198957227
C          -10.24171602254525        1.71638934883358       -1.66284350876092
C          -10.51150196849014        0.83945951159725       -0.62318035073707
N           -9.65299826619641        0.08815862430225        0.15581698672892
C           -8.25359084628345        0.10667251931924        0.08962539643602
C           -7.53643393901876       -1.08294464212623       -0.00929828041097
C           -6.15759909579436       -1.05965959138653       -0.06736154132052
C           -5.45832333996727        0.14628914411973       -0.04097527978766
C           -3.99082439398088        0.16662804225435       -0.10548588819811
C           -3.23249907612504       -0.77866166931828        0.58406081586961
C           -1.85428338441008       -0.76284112402988        0.52241488886967
C           -1.18728319904610        0.19870058466920       -0.23315808612446
C            0.28386240459640        0.23273634146713       -0.28490265211356
C            0.94129344681219        1.42673461549068       -0.01504453527584
C            2.32689660009531        1.52198505113757        0.01008798652911
C            2.95008769212327        2.83561079587731        0.25093440276495
C            3.93157387525403        3.32570033451603       -0.60701516351211
C            4.49941144088323        4.56668040171955       -0.38681012668070
C            4.09606581221737        5.33651088860914        0.69217308528607
C            3.11438611817823        4.86167929885943        1.54594028035846
C            2.54112722586324        3.62255120289002        1.32444957292468
C            3.08764386246256        0.36988500387404       -0.23214249117861
C            4.55740706051289        0.37278892703607       -0.14831348574519
C            5.32463129889340       -0.20766062519585       -1.15542322294835
C            6.70295638962075       -0.22923000882069       -1.07635102602178
C            7.35268461516226        0.31905251072190        0.02776302525576
C            8.80023521444626        0.33544528558837        0.16728094640595
N            9.45440005407065        1.34047944331608        0.69725084296829
C           10.76933444032252        0.99708768778227        0.65017435958208
C           11.88809927526424        1.77042350544383        1.06936332529640
C           11.72595075443701        3.05621579681721        1.59770190967581
C           12.81977917334594        3.79762928159806        1.96939623755779
C           14.09602429009781        3.25967355502034        1.81238697461370
C           14.26716632649491        1.99513907610093        1.29886545434991
C           13.17386803550564        1.20237699463392        0.91529625692597
C           13.32047094245543       -0.14909612954005        0.40140499684011
C           14.57601748852467       -0.76734209943805        0.30685177562688
C           14.72202468630624       -2.06079750003986       -0.13628525448492
C           13.60266657400384       -2.80686372186237       -0.49232218167439
C           12.35561508589247       -2.23607004480612       -0.42266496569080
C           12.18703390726270       -0.90900625261787       -0.00086508085400
C           10.91796948023526       -0.26947406563714        0.08787980421031
N            9.64171050802874       -0.67917140810860       -0.23080325478678
C            9.22566438622336       -1.88356969835925       -0.83914241911428
C            8.42020706692081       -2.76875059851649       -0.13286880314886
C            7.98520393157350       -3.93289529797223       -0.74180978393420
C            8.35052547698241       -4.21583367945258       -2.04759694993472
C            9.15317164654570       -3.33131215295303       -2.75088116894511
C            9.58966232387020       -2.16279660043847       -2.15335351334423
C            6.58610346796790        0.90954217756822        1.03399181414745
C            5.21081615795518        0.93216751062302        0.94901427929202
C            2.43030008841495       -0.81971886829564       -0.52300016549045
C            1.04482251755083       -0.91123869550112       -0.56172985730111
C            0.41808322431851       -2.19489175481745       -0.92461018501861
C            0.81023346943854       -3.37321161683551       -0.29485263990702
C            0.22843106284004       -4.58051845517886       -0.63734928124811
C           -0.74508951865436       -4.62940332640250       -1.62121459239855
C           -1.13051427235683       -3.46429205098494       -2.26441480638785
C           -0.55417542357544       -2.25583230051848       -1.91991249274696
C           -1.94201367644825        1.15159979017248       -0.91266558753331
C           -3.32117970184710        1.13355514886173       -0.85314649752412
C           -6.18615457968725        1.33207540030729        0.05026554975035
C           -7.56429100343631        1.31625597616943        0.12213727179249
H          -12.21971772898840       -4.51383240145281        3.52248924839670
H          -13.36015336101926       -4.45662853639996        2.18006807392416
H          -13.94142000271939       -4.73424986634862        3.82526363079576
H          -13.89239122147199       -2.80902696081186        5.52261232374332
H          -12.16792701753720       -2.60824657208984        5.22247141836835
H          -13.25636325780521       -1.23565964742001        5.03141849455808
H          -15.06802063295441       -2.58583087319836        2.03436641740055
H          -15.51798112594919       -2.88018159441591        3.71047763657376
H          -15.03216125252483       -1.26276621267009        3.21430954904904
H          -10.70597561074412       -2.84738697540700        3.54228782632074
H           -8.98416717608324       -1.73771405864019        2.23154242804478
H          -13.79177355536359       -0.82499336570012        1.36254628756219
H          -13.90734888824775        0.93745357196400       -0.61867746078655
H          -13.77717775459807        1.32298801299166       -4.30540687985754
H          -12.72431679459629        2.69775235802571       -4.63206635245153
H          -14.47265910045508        2.88524446555306       -4.74890322695972
H          -15.26232900897060        2.69965490018311       -1.14847403690014
H          -15.34686261013797        1.36587258049800       -2.31391605188465
H          -15.89534292190722        2.97532197678164       -2.76795525481511
H          -14.36052145731880        4.83378900147801       -3.08291461306784
H          -12.61417036233108        4.63395537818852       -2.96696522524611
H          -13.60050219301670        4.58711676463411       -1.50720640651165
H          -11.09275500138433        2.99898962679995       -3.10703245619966
H           -9.22889900151904        1.92011404459664       -1.97755883899265
H           -8.06851441537609       -2.02170132156343       -0.05642596452904
H           -5.61416857438708       -1.98831339653483       -0.16285678772990
H           -3.72944612126936       -1.51987500002629        1.19296649601358
H           -1.28407285186472       -1.49471673782567        1.07570720635714
H            0.35392768743745        2.31200522152299        0.18418365516104
H            4.24223758615636        2.73267811049838       -1.45499852580379
H            5.26087273449320        4.93472929798165       -1.05939960240272
H            4.54457914632864        6.30386821802795        0.86584886985329
H            2.79503230077173        5.45863636862341        2.38839530460194
H            1.78380022882300        3.24876105155290        1.99938351696237
H            4.83546905697326       -0.62520772818208       -2.02388322552953
H            7.27243508093590       -0.65477744323030       -1.88865228114283
H           10.72111853783607        3.43883222783849        1.69432192763148
H           12.69748584372910        4.79059351372408        2.37673569772268
H           14.96094394395866        3.84160356457084        2.09715670585402
H           15.27349874114212        1.62208016231018        1.19351358540858
H           15.46245489209007       -0.22613590917389        0.59553951106814
H           15.70626664089025       -2.50211026644111       -0.19501565757232
H           13.71173755241396       -3.83098440716706       -0.81763038425626
H           11.48915067709469       -2.82258080084365       -0.68263114755889
H            8.13991124293452       -2.53685335453101        0.88421167259253
H            7.36050496326791       -4.62044032251496       -0.19198659459529
H            8.00973985250610       -5.12536726438625       -2.51851202827660
H            9.43802759334559       -3.54743416848024       -3.76960076319426
H           10.21342404972994       -1.46407568844434       -2.69235615970350
H            7.09280508319763        1.34504309325820        1.88165144008532
H            4.63218090544380        1.37718083335712        1.74456512389017
H            3.01783605296794       -1.70466099189056       -0.72313900075138
H            1.56095438823976       -3.33566153830769        0.48219087225158
H            0.53462523959564       -5.48656530009051       -0.13383911789074
H           -1.20037280027566       -5.57231015993120       -1.88760844610299
H           -1.88375232359852       -3.49754022838313       -3.03862485719589
H           -0.85088156853777       -1.35109769902788       -2.43037103298913
H           -1.43983482108918        1.89901407293326       -1.51093562181869
H           -3.88844430680699        1.86483904506229       -1.41066334841230
H           -5.66363191734992        2.27625632151866        0.09631433318997
H           -8.11587185540437        2.23974673302676        0.21952861607725
