128
 energy: -201.712406923279 gnorm: 0.000152388052 xtb: 6.7.1 (edcfbbe)
O            7.81464095170009       -4.31217598553900        0.22406068856674
P            7.12629544734925       -3.03060194143086       -0.03093443507456
C            7.47507741067864       -2.43124619942251       -1.71635746117849
C            8.74340398115128       -1.92522842711698       -1.96886308328071
C            9.12041746903238       -1.62079276667381       -3.26391854865634
C            8.23407887127535       -1.83090825740534       -4.30896809231372
C            6.97102008243654       -2.34217085618955       -4.05810977254836
C            6.59022312544744       -2.64667575089963       -2.76191863108896
C            7.64991036891459       -1.73606982877993        1.13169361629890
C            8.08938275973813       -2.16118021477264        2.37948516473050
C            8.56111033568913       -1.24018667689084        3.29722764254729
C            8.60152865438904        0.10436101003548        2.96245440312083
C            8.16134538845108        0.52692029414410        1.71827229782952
C            7.67796437375944       -0.38899810682483        0.80042383948495
C            5.31933059671089       -3.23264553532914        0.08569971389122
C            4.86071688872114       -4.54380618595537        0.15636828637595
C            3.50776926259548       -4.85684886593395        0.19275561522886
C            2.55451486429646       -3.85792739400513        0.15420282507107
C            2.98592597499266       -2.53904486888134        0.09563349874840
C            4.36019905834048       -2.22823514373843        0.06971006742197
O            4.56735852133437       -0.88260686794457        0.02416509948186
C            3.33023794428532       -0.30378476387183        0.01175495112219
C            3.02108028981519        1.04915144521100       -0.04131234263632
P            4.17696306809888        2.45495079733835        0.02463154456265
O            3.54722549621741        3.70827411340093       -0.43474360613957
C            5.62921049318487        2.04128199203191       -0.98909358805124
C            6.82208860765868        2.69452046052360       -0.71165669709088
C            7.91739737176145        2.51042913048202       -1.53665867016279
C            7.81373741741324        1.68366745838790       -2.64430547935959
C            6.61536768127889        1.05187600201896       -2.93448039180466
C            5.51911620754455        1.23170472331305       -2.10913699863141
C            4.71006074175805        2.53343601845827        1.76055843833067
C            4.60564230631313        3.75576250650940        2.41102279182094
C            4.97431933802602        3.86523219627379        3.74026663273287
C            5.43630589370288        2.74964890446885        4.42061856294453
C            5.53246477196619        1.52729201267496        3.77308084789716
C            5.17293284723485        1.41566282116696        2.44263021144105
C            1.67692684851500        1.39229020913930       -0.07784607358257
C            0.64801634994289        0.44688075687820       -0.05267536745438
C           -0.75661724415608        0.87970118027201       -0.10864706524706
C           -1.15305912294429        1.89889128660329       -0.97023187802159
C           -2.47629808603624        2.29087044388524       -1.03948841037301
C           -3.44125764312615        1.67714182642094       -0.25037179135829
C           -4.88355164476167        2.14144758501898       -0.27981204567568
C           -5.86937023945537        1.00403674413497       -0.10227855334998
C           -7.05976580003684        1.19059821013650        0.58944604003294
C           -7.98094925269763        0.16643850316034        0.70295631966224
C           -7.73433247349781       -1.06552757885406        0.10650155775832
N           -8.66561987513643       -2.11002138480604        0.22275618915351
C          -10.01170568392457       -2.02947926768318       -0.06988127126649
C          -10.74106190526286       -0.96798219660740       -0.58766086686082
C          -12.08981387987570       -1.16255858853880       -0.81615770863316
C          -12.70527228841273       -2.38353744935235       -0.54540492409642
C          -11.98073691195829       -3.44961202556889       -0.05034500545976
C          -10.62255295374106       -3.27919643945109        0.18719567544023
C           -9.58435654343342       -4.14940694523711        0.66469109006979
C           -9.56389323629655       -5.47181627634882        1.09013274308751
C           -8.36661767920645       -6.01204145216260        1.51603536634850
C           -7.20156473700154       -5.24734835171712        1.53432437275529
C           -7.19638033873343       -3.93034552029590        1.11629990914893
C           -8.39241046003682       -3.38771016114513        0.66703743189857
C           -6.55352774162352       -1.25318762570311       -0.60517298229713
C           -5.63448279523030       -0.22725414255059       -0.70581582087975
C           -5.03575892651662        3.24301199817359        0.75402509592100
C           -4.81031312551214        3.18539531724929        2.11296645577146
C           -5.00022408769534        4.33467270948307        2.86927712796057
C           -5.40280064218425        5.51992298288151        2.27223500043630
C           -5.62372792663414        5.58576594463513        0.90567348297295
C           -5.43623466837265        4.44188780698674        0.14671221954750
C           -5.58587626399029        4.21100281424973       -1.28150289086445
C           -5.97250560042613        5.06322920216624       -2.30324029584689
C           -6.02981431650827        4.56751605100523       -3.59613610374990
C           -5.71012775626583        3.24469068006070       -3.86324919819770
C           -5.32328910285414        2.38607891740464       -2.84248126530621
C           -5.25702340023466        2.87576289656389       -1.55542443534593
C           -3.04220606732334        0.67703247390602        0.63020807225441
C           -1.72220369398585        0.27680975219508        0.69379689558533
C            0.97134476395557       -0.90249420783607        0.02185521770679
C            2.30783480923325       -1.27132888620330        0.04674067841676
H            9.42795535668732       -1.78371432439119       -1.14242339568750
H           10.10797363199116       -1.22983764376234       -3.45981288385641
H            8.53031251598738       -1.60052331874502       -5.32189688398916
H            6.28248320296232       -2.51138179194952       -4.87351677805789
H            5.60988259252406       -3.05714646765743       -2.56013840058222
H            8.07099665479284       -3.21893342954865        2.60446212643281
H            8.90354232986535       -1.57102101996145        4.26685731562660
H            8.97976605875663        0.82581565669529        3.67151094963095
H            8.19398108418654        1.57412889990817        1.46002160428302
H            7.32892744002333       -0.06680102372314       -0.16942202257249
H            5.60429054160224       -5.32777438231366        0.17920590878013
H            3.20541790241359       -5.89158284544736        0.24448210727875
H            1.50077369081783       -4.08719716429106        0.17101431372636
H            6.87388710897591        3.34795923613265        0.15005536087223
H            8.84870961868863        3.01290183663880       -1.32029022516397
H            8.66596565957244        1.53791248884000       -3.29037098230390
H            6.53507789898664        0.41972826917722       -3.80553856834192
H            4.57579759766214        0.75219654884171       -2.33329388777907
H            4.23208017297882        4.60664396994046        1.85790173765959
H            4.89772279517969        4.81710898330001        4.24496937582522
H            5.72041578742659        2.83182585102858        5.45936759308902
H            5.89177824974563        0.65821059457165        4.30387407113990
H            5.25889655573471        0.47053199326234        1.92929759282336
H            1.43835177834803        2.44586018600768       -0.11806550454800
H           -0.42084619725625        2.37602770507339       -1.60515512754942
H           -2.76088285115551        3.08099629173761       -1.71870964128826
H           -7.26667055867629        2.14237175498505        1.05559232907315
H           -8.89182322196953        0.31507983278098        1.26370879083665
H          -10.26966105394552       -0.02337513505938       -0.81440219926404
H          -12.68033846768505       -0.35120289782272       -1.21668993271636
H          -13.76292106083278       -2.49496354486803       -0.73509798306364
H          -12.45550081676178       -4.39968322703393        0.14549226423180
H          -10.46917753966095       -6.06070717999265        1.08988122255390
H           -8.32928447887822       -7.03936062130818        1.84822993491082
H           -6.28271927604738       -5.69366802389192        1.88636228293414
H           -6.29219269069283       -3.34129380467236        1.14780330614304
H           -6.36685029193748       -2.20093526294717       -1.08815333804187
H           -4.72065426969990       -0.38792251097392       -1.25839916535845
H           -4.49603526543136        2.26645931141915        2.58513352917129
H           -4.83092140083684        4.30478205928072        3.93593076784857
H           -5.54426013431569        6.40200784432466        2.88013092871376
H           -5.93393891740584        6.51096151041749        0.44293678973718
H           -6.22415741232383        6.09317516339970       -2.09775254940300
H           -6.32802561418265        5.21790764183367       -4.40588947181976
H           -5.76269851481237        2.87684525673624       -4.87776079685824
H           -5.07637428347610        1.35728201521637       -3.05850411113285
H           -3.77359787614182        0.19917471508636        1.26553047255135
H           -1.43139256671994       -0.49610168254488        1.39016797466433
H            0.19961099370579       -1.65580542499955        0.03448825283789
