128
 energy: -201.603588713211 gnorm: 0.000061736248 xtb: 6.7.1 (edcfbbe)
O            7.84662591093848       -4.28665778257407        0.32555026591749
P            7.13935439147852       -3.01910484182479        0.04264904257443
C            7.51062604852656       -2.45786684867755       -1.65401985088473
C            8.78338339857449       -1.96592166253621       -1.91101227709283
C            9.17127406005113       -1.69658971670924       -3.21056272528546
C            8.29155804493681       -1.92909779151487       -4.25641623282368
C            7.02409003411623       -2.42713995176708       -4.00150151288337
C            6.63286108678903       -2.69528385762534       -2.70044862225474
C            7.67032817700584       -1.69594934912486        1.17060514875409
C            8.07215523857942       -2.08877530130511        2.44201962970739
C            8.54208626325068       -1.15013206203666        3.34157150818381
C            8.61660604925002        0.18330167002770        2.96764707860066
C            8.21138172891932        0.57502964159771        1.70187760749347
C            7.73054204209170       -0.35934452005172        0.80154290660278
C            5.34441031212384       -3.22782998216256        0.16215820118473
C            4.88867415087379       -4.55144106039378        0.28971950180279
C            3.53817540617546       -4.86059810108633        0.34307822354835
C            2.57678798135771       -3.87139106001395        0.26752050833893
C            3.00322880584748       -2.54125925296104        0.15430134182057
C            4.38018751960421       -2.23478559975782        0.11316513837001
O            4.57959504403926       -0.88487997350764        0.01354942826425
C            3.34248547400122       -0.31371593689451       -0.01621125085963
C            3.03407356418169        1.03755700602792       -0.13143564206464
P            4.18371956259088        2.43224814866808       -0.07439837274714
O            3.57318233158605        3.68190454553212       -0.57512398281872
C            5.66363980326765        2.00908131988944       -1.04767513485445
C            6.84342722475752        2.68182851207398       -0.76259819930509
C            7.95565125734334        2.49581130978206       -1.56407731398510
C            7.88203241274839        1.64667371872628       -2.65706026643204
C            6.69700955762868        0.99394660103836       -2.95527191292322
C            5.58433726866599        1.17652188324531       -2.15284970177171
C            4.69317079935567        2.56045208138644        1.66425974634273
C            4.49496166030589        3.77460183088649        2.31240064435079
C            4.81383752758513        3.90522514387600        3.65134623725190
C            5.31983542371503        2.81907524854021        4.34946612679640
C            5.50535068966990        1.60311422739940        3.70688597755102
C            5.19280999300629        1.46985259570701        2.36791191565439
C            1.67644691104871        1.37858921910127       -0.17621366790184
C            0.65324959278978        0.42968097548436       -0.09739943497437
C           -0.74600427173409        0.85593147519113       -0.14421561376341
C           -1.15342885493056        1.90679881046272       -0.97094410529355
C           -2.47514730369149        2.29725100402815       -1.02272417940373
C           -3.43820377513650        1.65454726526751       -0.24942715125906
C           -4.87594840216956        2.12120443565424       -0.24935426642805
C           -5.86544255371101        0.99492088763977       -0.08416878763488
C           -7.05283405808379        1.17380893658353        0.62829498360930
C           -7.98483805561512        0.16519379126096        0.71651370689810
C           -7.75698583222464       -1.06589461587484        0.08629234296557
N           -8.68877790934451       -2.08956188782983        0.18069986990224
C          -10.05635218417717       -1.95097644803597        0.02588047104455
C          -10.79449975756315       -0.83210438504773       -0.32737045738118
C          -12.17405713172425       -0.97330437724645       -0.44110933747898
C          -12.79056691480883       -2.20201077458853       -0.22194597116602
C          -12.05443702566421       -3.33515302372066        0.09429220262678
C          -10.67344790571274       -3.21904602257568        0.21026775541464
C           -9.62135142913008       -4.15217321667945        0.48322422973026
C           -9.59405571063763       -5.51487279125038        0.75912560579334
C           -8.37013415236517       -6.11417432942958        1.02114745698267
C           -7.18857255480111       -5.37842262843816        1.02893701612550
C           -7.19089796737680       -4.01458214344925        0.75329774673237
C           -8.40503365456079       -3.41552376455837        0.45598701290222
C           -6.57164745053712       -1.24617790102948       -0.64097138669079
C           -5.65128094283117       -0.22848911368586       -0.72652158614991
C           -5.00691303860612        3.21060734284489        0.80234620887640
C           -4.74655264968063        3.13477975250094        2.15253092437694
C           -4.92536841958246        4.27313014744182        2.93023452910612
C           -5.34818973479392        5.46644600913412        2.35764478518225
C           -5.60277907801414        5.55172812091228        1.00027837366324
C           -5.42986601020506        4.41755692299289        0.21666371209809
C           -5.61311980296908        4.20584616641498       -1.20286602156947
C           -6.02694755305424        5.07060738091737       -2.20836021718158
C           -6.10193692859621        4.59529498364178       -3.50526690779623
C           -5.77305898835740        3.27748660817719       -3.80143493662213
C           -5.36434313091639        2.40428791830639       -2.80088995188105
C           -5.27894112164552        2.87348949441105       -1.50855423933144
C           -3.03277606084901        0.62290626999649        0.59611242239811
C           -1.71465715144547        0.22333952801975        0.64047850769992
C            0.97747266307058       -0.92217842894138        0.03205418161483
C            2.32571520342234       -1.29031093720495        0.06075104481943
H            9.46267944652143       -1.80735334567115       -1.08314667859953
H           10.16232259713026       -1.31546020613260       -3.40894783683764
H            8.59629218165380       -1.72612310706257       -5.27277579361055
H            6.34012672558804       -2.61414862682706       -4.81705343645675
H            5.64874796592991       -3.09422365279060       -2.49196812788985
H            8.02605986027993       -3.13881076519687        2.69837556055567
H            8.85589126730049       -1.45753264104538        4.32866622403512
H            8.99296405730735        0.91909671037808        3.66292090349686
H            8.26762435363179        1.61339129929638        1.41278092548080
H            7.40743438083331       -0.05996241612822       -0.18474417178063
H            5.63584263136473       -5.32960946150096        0.33825679467780
H            3.23934763765897       -5.89444562423561        0.43703755154896
H            1.52444429695654       -4.10405736277328        0.29626553664409
H            6.87107881000366        3.35085171654494        0.08860815702316
H            8.87706517252676        3.01368797560858       -1.34074380766634
H            8.74777605831173        1.49845414755998       -3.28462276453445
H            6.64007938636011        0.34264432358271       -3.81415339343351
H            4.65050240097139        0.67979036541056       -2.38102467583582
H            4.09398742921281        4.60298970736919        1.74437264339633
H            4.66656768422859        4.85157763307288        4.15138023403934
H            5.56721895169525        2.91791563205148        5.39613354515607
H            5.89723767065037        0.75590155979897        4.25037942662153
H            5.34226472410590        0.52925848382217        1.85974229819138
H            1.44085770858092        2.42997112133841       -0.25171557401488
H           -0.42509562561606        2.40343207771964       -1.59462549265995
H           -2.76591786476625        3.10663250161801       -1.67627772359136
H           -7.23369552874660        2.10983647075078        1.13431835136858
H           -8.87392526846775        0.29871937882358        1.31347654290423
H          -10.32244156130010        0.11702423530720       -0.52699369438923
H          -12.77204034693471       -0.11659236654983       -0.71008172812027
H          -13.86408342230759       -2.27599622740614       -0.31477844670124
H          -12.54000040671236       -4.28716049271852        0.24143574404540
H          -10.50634116203864       -6.09033598512196        0.77550757246243
H           -8.33333483870152       -7.17190684828360        1.23655051816752
H           -6.25552532745536       -5.86918134959938        1.25841256975217
H           -6.27373356372260       -3.44820764482513        0.78875222351485
H           -6.41059382724960       -2.17161942744006       -1.17234279871065
H           -4.74828191050213       -0.37516731639107       -1.29989655636884
H           -4.41234954493304        2.21272045917678        2.60425433846509
H           -4.72955931023702        4.22973383057033        3.99153439352332
H           -5.47593937469774        6.33909080033207        2.98191024074980
H           -5.92554373754239        6.48224131560577        0.55767897761590
H           -6.28335863861145        6.09459446513090       -1.98100682330900
H           -6.41978106400176        5.25457964019604       -4.30009194221029
H           -5.83556239391435        2.92797764200232       -4.82145457421465
H           -5.11107591174524        1.38263923629802       -3.04111753044296
H           -3.76036886682477        0.12837868147101        1.22320244321055
H           -1.41806000618306       -0.56821287132087        1.31234187090189
H            0.21214350276780       -1.67959383817750        0.06989565561955
