  128
       -201.63302593
 O          7.8484459131       -4.2661459259        0.1691278594
 P          7.1320918072       -3.0035103662       -0.0654780180
 C          7.4145530117       -2.3719441948       -1.7531460998
 C          8.6670363911       -1.8483223316       -2.0432275040
 C          8.9929167353       -1.5144124864       -3.3446109740
 C          8.0708575168       -1.7136187962       -4.3603466868
 C          6.8223503957       -2.2406077204       -4.0722232512
 C          6.4928526188       -2.5723304636       -2.7688985290
 C          7.6441720952       -1.6895821026        1.0824681868
 C          8.0887370886       -2.0990512488        2.3328481988
 C          8.5621401832       -1.1669706340        3.2382291362
 C          8.6015689365        0.1732121740        2.8873685121
 C          8.1561926199        0.5797412743        1.6399967964
 C          7.6704388327       -0.3471473955        0.7349030280
 C          5.3298941990       -3.2306779406        0.0706847744
 C          4.8836043690       -4.5455997677        0.1174198063
 C          3.5326356536       -4.8690686195        0.1477436437
 C          2.5712249768       -3.8775112045        0.1248336901
 C          2.9911392041       -2.5541998711        0.0901175824
 C          4.3638911379       -2.2342474693        0.0712311049
 O          4.5634205852       -0.8911814827        0.0540327275
 C          3.3279620282       -0.3177166560        0.0579221147
 C          3.0168960936        1.0353888289        0.0470140460
 P          4.1758471045        2.4346426127        0.1630067767
 O          3.5464542024        3.7147372007       -0.1932764380
 C          5.5935141219        2.0556356623       -0.9141611520
 C          6.7777814502        2.7367365267       -0.6705803467
 C          7.8576638911        2.5716488444       -1.5189986288
 C          7.7453097824        1.7373904800       -2.6202037341
 C          6.5529145996        1.0817817690       -2.8797090921
 C          5.4741274781        1.2391093217       -2.0274149165
 C          4.7865811628        2.3963597911        1.8772107372
 C          4.8049957225        3.6003022491        2.5683494728
 C          5.2437994842        3.6398149906        3.8796036399
 C          5.6519506801        2.4721505948        4.5043384107
 C          5.6247371992        1.2688460479        3.8172279399
 C          5.1977861538        1.2273039488        2.5025521659
 C          1.6743071258        1.3777646139        0.0076592416
 C          0.6483056637        0.4289100357       -0.0023438111
 C         -0.7545264801        0.8617917052       -0.0709484480
 C         -1.1333391055        1.8964864591       -0.9217559872
 C         -2.4549722741        2.2862016935       -1.0137309364
 C         -3.4342807640        1.6580794855       -0.2545715973
 C         -4.8718434608        2.1280794627       -0.3095628013
 C         -5.8689958919        1.0048819230       -0.1222637204
 C         -7.0591962909        1.2135410320        0.5627153115
 C         -7.9899332216        0.2003163819        0.6896312395
 C         -7.7537175142       -1.0437562301        0.1137161718
 N         -8.6913398209       -2.0764940968        0.2438910212
 C        -10.0411904051       -1.9837046045       -0.0299966326
 C        -10.7703710720       -0.9139912548       -0.5295461647
 C        -12.1233617659       -1.0985480957       -0.7403020873
 C        -12.7426603987       -2.3172977178       -0.4712090429
 C        -12.0181718316       -3.3920892730        0.0036161056
 C        -10.6563610964       -3.2313419777        0.2235107734
 C         -9.6183390040       -4.1130530775        0.6788085376
 C         -9.6033321904       -5.4387720986        1.0919994601
 C         -8.4058045986       -5.9912575746        1.5000219478
 C         -7.2357459988       -5.2351285480        1.5130866412
 C         -7.2252502978       -3.9147867554        1.1060232139
 C         -8.4212936886       -3.3603509403        0.6727105983
 C         -6.5732450929       -1.2518148903       -0.5937817397
 C         -5.6443941029       -0.2368144504       -0.7073431676
 C         -5.0266484420        3.2475040298        0.7021551053
 C         -4.8148536810        3.2093933952        2.0633493866
 C         -5.0033946236        4.3721970165        2.7984999591
 C         -5.3922578910        5.5495652775        2.1778829686
 C         -5.5990030610        5.5951469980        0.8085709750
 C         -5.4120752146        4.4380553283        0.0705351387
 C         -5.5440872181        4.1842722549       -1.3552549443
 C         -5.9064229001        5.0219534492       -2.3972021250
 C         -5.9431215836        4.5053022781       -3.6823729756
 C         -5.6260773848        3.1770608905       -3.9226081711
 C         -5.2638087051        2.3327430410       -2.8814251303
 C         -5.2203061290        2.8427664688       -1.6018761697
 C         -3.0532613585        0.6465483990        0.6198189968
 C         -1.7345462452        0.2453141612        0.7020156857
 C          0.9712662083       -0.9211144449        0.0441962961
 C          2.3079894863       -1.2890768320        0.0668816298
 H          9.3807270361       -1.7172771559       -1.2408328183
 H          9.9688423539       -1.1101646741       -3.5705206275
 H          8.3277649219       -1.4632405114       -5.3793308000
 H          6.1062912313       -2.4013603141       -4.8655027574
 H          5.5246934695       -2.9961916885       -2.5399859862
 H          8.0751689427       -3.1535230101        2.5697708438
 H          8.9105091005       -1.4846059446        4.2100770710
 H          8.9819840638        0.9038304757        3.5860914544
 H          8.1892595683        1.6238769737        1.3690789836
 H          7.3207870932       -0.0353014433       -0.2368243038
 H          5.6337104656       -5.3225852760        0.1271328480
 H          3.2364111670       -5.9062738663        0.1822088758
 H          1.5188740442       -4.1157946651        0.1362022045
 H          6.8340200750        3.3976910597        0.1847403219
 H          8.7832948045        3.0949182004       -1.3282221364
 H          8.5851046364        1.6053686842       -3.2858501840
 H          6.4650126489        0.4472299806       -3.7481801803
 H          4.5384643188        0.7377030305       -2.2291400944
 H          4.4667352620        4.4929679474        2.0615428052
 H          5.2637086211        4.5774057864        4.4154630122
 H          5.9888404427        2.4986673155        5.5301723590
 H          5.9404793356        0.3582189063        4.3054176484
 H          5.1939461998        0.2947375145        1.9633447538
 H          1.4327678115        2.4300830638       -0.0045960657
 H         -0.3871454590        2.3848826004       -1.5302463118
 H         -2.7295072351        3.0857058441       -1.6851752963
 H         -7.2571837398        2.1748914359        1.0124636117
 H         -8.8992403705        0.3653671212        1.2478745465
 H        -10.2960148826        0.0287425440       -0.7579918126
 H        -12.7131005589       -0.2805231105       -1.1267954017
 H        -13.8028625208       -2.4204304059       -0.6475514466
 H        -12.4945026415       -4.3412782319        0.1974673267
 H        -10.5131050663       -6.0198477693        1.0962517033
 H         -8.3716744754       -7.0213319444        1.8221287755
 H         -6.3165228452       -5.6904124951        1.8515991747
 H         -6.3167726216       -3.3317252845        1.1356914324
 H         -6.3956831018       -2.2075513121       -1.0641386706
 H         -4.7305393934       -0.4130632380       -1.2550524170
 H         -4.5100598094        2.2951315440        2.5510112135
 H         -4.8442602330        4.3587249982        3.8665667640
 H         -5.5331958880        6.4419839849        2.7696980309
 H         -5.8982375165        6.5143495542        0.3275196769
 H         -6.1542762599        6.0566140247       -2.2128465470
 H         -6.2222181447        5.1437642232       -4.5076186346
 H         -5.6612359905        2.7934471993       -4.9315757560
 H         -5.0186203228        1.2989701922       -3.0751759515
 H         -3.7968687948        0.1615785625        1.2349757028
 H         -1.4559009210       -0.5389905978        1.3910510617
 H          0.1993274852       -1.6747298484        0.0348025094
