128
 energy: -201.714754213359 gnorm: 0.000059582885 xtb: 6.7.1 (edcfbbe)
O            7.73242227528864        0.69529338385150       -0.40594097835649
P            7.75124468400482       -0.09340110747371        0.83985675309369
C            9.23913677465867        0.20713412865871        1.84339693382231
C            9.65946248043761       -0.67844678069973        2.82872246947964
C           10.80084182587152       -0.39917451112300        3.55853023213813
C           11.52303819891930        0.75751183565210        3.30603338060885
C           11.10780075208160        1.63740034249101        2.31936139814297
C            9.96636941174441        1.36106598095922        1.58718528381306
C            7.73358881831541       -1.89494753119170        0.58147181874915
C            8.53055504603221       -2.37854791189528       -0.44765302292729
C            8.64239685710367       -3.74091991531095       -0.65453754418331
C            7.95183214068520       -4.62095306891446        0.16407402199634
C            7.14689814260924       -4.13881914512447        1.18333554675947
C            7.04054568381645       -2.77580380720441        1.39972840428859
C            6.34581202756552        0.26858967807200        1.94545197195194
C            6.44735467321088        0.46354152973061        3.31744028978801
C            5.33350248947060        0.76979426746313        4.09281539875416
C            4.07773045703390        0.90198455799121        3.52977878254665
C            3.94907832004391        0.72040975908909        2.15875178182661
C            5.08306813945676        0.40225462438605        1.38531785013020
O            4.77430063289009        0.25665676931790        0.07138452360594
C            3.43982448903434        0.49781272325916       -0.03254982720377
C            2.67568082881449        0.47535642318817       -1.18925635820748
P            3.33334633795538        0.16748462979750       -2.85762148267521
O            2.25028760130771       -0.10670931993305       -3.82367455416850
C            4.47572527411073       -1.24078245744401       -2.69877242500955
C            5.59621742396406       -1.32950459819729       -3.51079704779434
C            6.37255767321500       -2.47457965314778       -3.48654224050537
C            6.02665555655208       -3.52893218940739       -2.65755888435576
C            4.90690726426246       -3.44036316799850       -1.84681658662000
C            4.12689081891126       -2.29862866102498       -1.87132028378721
C            4.30611866740609        1.64281223467766       -3.27515140516456
C            3.79425414843022        2.48294267147558       -4.25575096767779
C            4.47201133042077        3.63945256035723       -4.59844566853869
C            5.65969871931817        3.95614455885778       -3.95817657461423
C            6.16974129514012        3.11639023212370       -2.97966466833926
C            5.49671031649159        1.95890433224225       -2.63199135460363
C            1.32140501867834        0.74140489392775       -1.06248000651790
C            0.71933884771785        1.02159786088918        0.16945979123409
C           -0.72527869783702        1.29122774234656        0.23768540893082
C           -1.62265883881742        0.57470393909243       -0.55139679892707
C           -2.97848943862989        0.82762552110789       -0.48686831583668
C           -3.48245314264402        1.79988662500852        0.37088965253634
C           -4.96308616571158        2.12232669267811        0.37815340529683
C           -5.83543621173466        0.89320002966123        0.22189025464244
C           -7.03233302050907        0.95183207444872       -0.48132886258349
C           -7.85323387947598       -0.15599603325762       -0.57596056340789
C           -7.49822949571910       -1.34535813081314        0.05166506022088
N           -8.32755691507002       -2.47432259070465       -0.04506255984529
C           -7.93263986480953       -3.73236284596864       -0.45273638608949
C           -6.68622738368521       -4.17432123003805       -0.87463252905031
C           -6.56450893067193       -5.49760050578137       -1.25337241359908
C           -7.65415573692414       -6.36617723504238       -1.22381844338701
C           -8.90151515751181       -5.92703303035891       -0.82656191136104
C           -9.04930557456755       -4.60061771859963       -0.44070943452506
C          -10.16905081862920       -3.81782147749598        0.00246575772634
C          -11.50859891942810       -4.10676119732943        0.23099939174018
C          -12.33384949288739       -3.10025868476349        0.69194605879668
C          -11.83627445041632       -1.82174846766116        0.93815259894484
C          -10.50862042022618       -1.50919836642734        0.71698030001135
C           -9.67872111580465       -2.51111839206807        0.23283036619977
C           -6.31132464981926       -1.40517548865711        0.77530753940232
C           -5.49204873167912       -0.29623780176143        0.85638463215741
C           -5.42040391665944        2.85296071051834        1.62817996867699
C           -5.46087192397474        2.39345290315098        2.92740524638164
C           -5.94023758476885        3.23951855728591        3.91901065160246
C           -6.37463437701515        4.52022228000633        3.61151322061489
C           -6.34385821796535        4.98475869271359        2.30617334407637
C           -5.86677083944587        4.14445346225092        1.31313079589409
C           -5.72058402165301        4.34910154071248       -0.11945934769535
C           -6.00209367525757        5.44953379382024       -0.91286088786110
C           -5.75694770116691        5.36701077136115       -2.27435823469312
C           -5.23718472883562        4.20875717943675       -2.83272155218982
C           -4.95376657608454        3.10278557393080       -2.04200695054074
C           -5.20346733052652        3.17633254601304       -0.68813082660868
C           -2.58849101146774        2.52542267797680        1.14830748366667
C           -1.23158298984449        2.27153026967881        1.08753296472846
C            1.50039914124022        1.04365724103676        1.32033512397701
C            2.85925546771213        0.78237240803404        1.21883742427242
H            9.09544733998453       -1.58171066633795        3.01359502586805
H           11.13022276829927       -1.08562322885628        4.32474842629031
H           12.41445566417492        0.97068848198530        3.87730439478359
H           11.67325790627722        2.53573181527260        2.11933253212167
H            9.62573681491183        2.02599847708689        0.80543930371494
H            9.05343311217308       -1.67042309212019       -1.07644371748031
H            9.27037600405332       -4.11625769655839       -1.44908056776326
H            8.03970343866211       -5.68584900111756        0.00629028959417
H            6.60569615118327       -4.82623010385548        1.81713811315788
H            6.42171124635786       -2.39392917777201        2.20008475271760
H            7.41546617844187        0.37645494177664        3.78735463707044
H            5.45980731392640        0.91037003323942        5.15556140260383
H            3.21772548024143        1.14351600618326        4.13427523692644
H            5.85094370522473       -0.50098533959613       -4.15836048932500
H            7.24511026781158       -2.54540996468079       -4.11928713300232
H            6.62688318495399       -4.42579194114165       -2.64712385217966
H            4.63853328973923       -4.26374555820596       -1.20129056969095
H            3.23891314211198       -2.22017262220767       -1.25633820292851
H            2.86894460330538        2.20772743868385       -4.74318829507090
H            4.07530055128238        4.29168845348768       -5.36277140024771
H            6.19116713197670        4.85823353260352       -4.22444886854997
H            7.09804814641233        3.35743206579792       -2.48301544105738
H            5.89977354777086        1.30118431386339       -1.87679656117410
H            0.73064041628605        0.73498100355882       -1.96755941733199
H           -1.25577571750179       -0.19857136582921       -1.21044486910370
H           -3.65420135634543        0.25480582176868       -1.10521826980439
H           -7.32299950863429        1.86893753214297       -0.97181352521950
H           -8.76878287688724       -0.10595675501837       -1.14643044419342
H           -5.83967439580062       -3.50548073310080       -0.91501234470387
H           -5.60380578668990       -5.86662517614299       -1.58259253753545
H           -7.51779410057873       -7.39455670177624       -1.52529520038876
H           -9.74861556384943       -6.59686967363073       -0.81794767741567
H          -11.89167113409100       -5.10097368453878        0.05453184630886
H          -13.37895180085223       -3.30423476279911        0.87417249623496
H          -12.50311364045107       -1.05865336452729        1.31292850162289
H          -10.12871141729529       -0.51992329721302        0.92413744561826
H           -6.04108749841800       -2.31967698172857        1.28219443000694
H           -4.57116744034894       -0.35880416028388        1.41713984041388
H           -5.12449043862451        1.39746271230155        3.17405181133382
H           -5.97521454858256        2.89505596377524        4.94242971148421
H           -6.74347336452838        5.16155749380498        4.39907551291800
H           -6.68564894703528        5.98140031768749        2.06908663545596
H           -6.40343669554199        6.35420174363604       -0.48068475022692
H           -5.97059470833820        6.21519627073565       -2.90886697017588
H           -5.04947271852216        4.16531683826209       -3.89582097461110
H           -4.54809113749011        2.20484278015283       -2.48382343709922
H           -2.95539651669683        3.29926764654934        1.80645908804500
H           -0.55452228942238        2.86074289047194        1.68814609930105
H            1.05588409289417        1.24167028624506        2.28299259880596
