  130
       -199.92851858
 C          5.6316467858        1.4010472618        0.8673625028
 C          5.7695717673        0.4712813073       -0.1497218130
 C          4.8048416279       -0.5000908919       -0.3394397784
 C          3.6839431241       -0.5533261111        0.4854194134
 C          2.6814237671       -1.6250995621        0.3366354864
 C          1.3331500760       -1.3067735803        0.2514400520
 C          0.3603483177       -2.2900080538        0.1104284274
 C         -1.0544410683       -1.8875842385        0.0487999648
 C         -2.0275404933       -2.4909752401        0.8433055822
 C         -3.3381894371       -2.0592585349        0.8054454212
 C         -3.7056216036       -1.0008167501       -0.0209736872
 C         -5.0540619052       -0.4494253703        0.0167508742
 N         -6.1780673472       -1.1012276404       -0.1081569099
 C         -7.1596988058       -0.1598831777       -0.0714944121
 C         -8.5621198681       -0.3496744665       -0.1872148504
 C         -9.1064619390       -1.6253129860       -0.3796376802
 C        -10.4625637085       -1.7870763795       -0.5147076052
 C        -11.2931479636       -0.6696693548       -0.4615921765
 C        -10.7694767952        0.5887776868       -0.2679109043
 C         -9.3911130391        0.7957481260       -0.1173676272
 C         -8.8131846170        2.1094049002        0.1161706853
 C         -9.6081714980        3.2551427846        0.2514985590
 C         -9.0642532787        4.4938637193        0.5038749070
 C         -7.6882121855        4.6403969107        0.6466765155
 C         -6.8720926037        3.5440403553        0.5134764907
 C         -7.4069431565        2.2776898474        0.2375626870
 C         -6.6035576920        1.1146018918        0.0944740668
 N         -5.2513640960        0.9149644388        0.1549762109
 C         -4.1713295970        1.7893872123        0.3485838888
 C         -3.3315554267        1.5769020692        1.4499209598
 C         -2.1419275726        2.2417629792        1.5561952564
 C         -1.6930565592        3.1159997953        0.5337829273
 C         -0.3603501191        3.6145992116        0.5393366502
 C          0.3022011732        3.9878605750       -0.6683242737
 C          1.6318292017        4.2536392888       -0.7051324310
 C          2.4226949348        4.2231044301        0.4856071361
 C          3.8089284716        4.3886608173        0.5232548837
 N          4.4705853904        4.7242926091        1.6503355606
 C          5.7464935389        4.9076078578        1.3017370103
 C          6.8495197605        5.2720241105        2.0899124215
 C          8.0801859293        5.3373251473        1.4810021258
 C          8.2455471208        5.0447004765        0.1217622559
 C          7.1733292961        4.6914595145       -0.6853924549
 C          5.9256857589        4.6444508331       -0.0960075588
 N          4.6828526094        4.3113113611       -0.5724489583
 C          4.4374105941        3.7122646045       -1.8138469592
 C          4.9005023024        4.3126307606       -2.9813460110
 C          4.6904987406        3.6972563029       -4.2016361567
 C          4.0202513041        2.4869475045       -4.2685986387
 C          3.5528051459        1.8930302133       -3.1065703554
 C          3.7579557604        2.4963008259       -1.8820647885
 C          1.7245150651        4.0327544682        1.7209400700
 C          0.4099299199        3.7085589423        1.7399210091
 C         -2.6033010208        3.3831697885       -0.5222960684
 C         -3.8126594815        2.7470106256       -0.6098495896
 C         -2.7438158167       -0.4267191315       -0.8517957500
 C         -1.4371441264       -0.8608048544       -0.8112564918
 C          0.7467356010       -3.6331733904        0.0420842320
 C         -0.2667468737       -4.6921461435       -0.1341867055
 C         -0.3660479959       -5.7402811143        0.7756316571
 C         -1.3199007127       -6.7260608059        0.6058252559
 C         -2.1845596712       -6.6798463081       -0.4747091960
 C         -2.0919023745       -5.6409323256       -1.3852927043
 C         -1.1407328438       -4.6524992142       -1.2164106384
 C          2.1018379591       -3.9660366052        0.1285895671
 C          2.5118738126       -5.3847011056        0.0556072251
 C          3.2187200448       -5.9717886011        1.0997331662
 C          3.5978534294       -7.2991255254        1.0287238783
 C          3.2793397060       -8.0553174195       -0.0864597883
 C          2.5772464433       -7.4778508597       -1.1306878051
 C          2.1938765527       -6.1517725305       -1.0603279699
 C          3.0703944394       -2.9697254815        0.2811856531
 C          4.4943601817       -3.3425755040        0.4006212549
 C          5.2263729701       -2.9593484456        1.5202524318
 C          6.5564538447       -3.3141724204        1.6421868571
 C          7.1736555456       -4.0528621725        0.6469035823
 C          6.4532624703       -4.4356031289       -0.4718271052
 C          5.1219272011       -4.0851170097       -0.5945481277
 C          3.5300577754        0.4167058898        1.4726005200
 C          4.5019165283        1.3817898336        1.6680085938
 H          6.3996168026        2.1424640288        1.0331876151
 H          6.6363612650        0.4987733048       -0.7937618913
 H          4.9177215428       -1.2218233251       -1.1347011844
 H          1.0308450428       -0.2696556586        0.3019452595
 H         -1.7479802844       -3.2876137883        1.5160891937
 H         -4.0850618134       -2.5184338051        1.4348334894
 H         -8.4259493620       -2.4614121799       -0.4226290143
 H        -10.8866554812       -2.7688061186       -0.6643293697
 H        -12.3610066661       -0.7906996073       -0.5724745957
 H        -11.4519487288        1.4231533872       -0.2357767188
 H        -10.6801017859        3.1790924556        0.1655326420
 H         -9.7100197649        5.3541157098        0.6007686850
 H         -7.2640445819        5.6096963210        0.8623472114
 H         -5.8051974034        3.6507970988        0.6356599525
 H         -3.6288826053        0.8613121598        2.2028580491
 H         -1.5012239462        2.0317409819        2.3973131929
 H         -0.2590617095        4.0099175876       -1.5900132099
 H          2.0953842334        4.5285853001       -1.6400378915
 H          6.7154591775        5.4840843337        3.1379179716
 H          8.9485233095        5.6135457603        2.0609844600
 H          9.2342444923        5.0928725483       -0.3093550179
 H          7.3183592456        4.4518311877       -1.7277614913
 H          5.4032267878        5.2668860558       -2.9281855207
 H          5.0483396758        4.1687796492       -5.1050019758
 H          3.8602122827        2.0099789854       -5.2236807044
 H          3.0318473176        0.9482733294       -3.1509092142
 H          3.4022208324        2.0337297877       -0.9747774893
 H          2.2980902271        4.1216845270        2.6294874694
 H         -0.0833148968        3.5562644302        2.6879502475
 H         -2.3421519532        4.1115554566       -1.2741066144
 H         -4.4810304104        2.9455118767       -1.4364422033
 H         -3.0227677521        0.3572065439       -1.5396835182
 H         -0.7017197263       -0.4060859539       -1.4591272874
 H          0.3006683712       -5.7734448523        1.6251987529
 H         -1.3891507142       -7.5330158423        1.3206765643
 H         -2.9291272469       -7.4509279001       -0.6062497803
 H         -2.7640518605       -5.5996581738       -2.2297947039
 H         -1.0655661134       -3.8454536706       -1.9313315456
 H          3.4630471297       -5.3850664893        1.9736467562
 H          4.1441766080       -7.7450401509        1.8470818161
 H          3.5772401179       -9.0920225265       -0.1415236482
 H          2.3267025797       -8.0628086847       -2.0036751805
 H          1.6508641593       -5.7012378658       -1.8788392992
 H          4.7445751505       -2.3877122563        2.3005810681
 H          7.1135059370       -3.0130216754        2.5173594725
 H          8.2133743649       -4.3291218331        0.7425803594
 H          6.9301818076       -5.0102709190       -1.2524818058
 H          4.5643882805       -4.3786646063       -1.4723418759
 H          2.6563640176        0.3945365084        2.1087184792
 H          4.3809066448        2.1207179137        2.4459428263
