  62
  -101.545311224800       0.217132310287624      !
 O         -0.0707989743       -4.2223776588        0.4413139538
 C         -0.8046292542       -3.3643511607       -0.1059403371
 C         -2.0111089511       -3.7034992379       -0.7898743195
 C         -2.7672467362       -2.8988232703       -1.6850129411
 N         -3.8432835878       -3.3176276753       -2.2893293304
 C         -4.2609513836       -4.5641717025       -2.0857211399
 N         -3.5827013843       -5.4173188680       -1.3225919099
 C         -2.5071713344       -5.0406288859       -0.7110904047
 C         -0.3957551056       -1.9428194615       -0.0528677221
 C         -1.3085726134       -0.8966139845        0.0905263127
 C         -0.8538662880        0.4120082964        0.1899835507
 N         -1.7776326281        1.4524215149        0.3582952221
 C         -1.8512387868        2.5998405179       -0.4022787990
 C         -1.0973704284        2.9786459274       -1.5040865747
 C         -1.3923107041        4.1882445247       -2.1043398969
 C         -2.4191962864        5.0007305931       -1.6306254819
 C         -3.1911716400        4.6168868503       -0.5489823720
 C         -2.9121003617        3.4077127716        0.0700696751
 C         -3.5004229522        2.6999062309        1.1758238387
 C         -4.5463433074        2.9804879141        2.0421589969
 C         -4.8445182070        2.0665903365        3.0365840078
 C         -4.1054713873        0.8950755340        3.1807165275
 C         -3.0583735169        0.5937981237        2.3299666835
 C         -2.7702535076        1.4964201952        1.3152465731
 C          0.5084656714        0.6979435487        0.1573388249
 C          1.4205774232       -0.3500613348        0.0431878129
 N          2.7942669471       -0.0879061710        0.0553945541
 C          3.4484109833        0.8651805296       -0.6966759310
 C          2.9486188726        1.7292255972       -1.6611130104
 C          3.8361752313        2.5831893281       -2.2885908489
 C          5.1929610313        2.5751015049       -1.9770287157
 C          5.7028387972        1.6968579575       -1.0374318254
 C          4.8303198492        0.8319392602       -0.3950700282
 C          5.0066467382       -0.2001835960        0.5917673042
 C          6.1107308385       -0.6869134998        1.2748854572
 C          5.9227839176       -1.7006499917        2.1973783809
 C          4.6535898482       -2.2148055284        2.4494192189
 C          3.5378537660       -1.7449371059        1.7816337415
 C          3.7245120445       -0.7445910707        0.8368872282
 C          0.9711168448       -1.6582136141       -0.0564813389
 H         -2.4448748157       -1.8961851323       -1.9345852046
 H         -5.1621750058       -4.8978535829       -2.5687638569
 H         -1.9559650714       -5.7579551299       -0.1168994285
 H         -2.3667839654       -1.0917350427        0.1541367758
 H         -0.3165240549        2.3420451274       -1.8902989443
 H         -0.8179169349        4.5064920308       -2.9612262583
 H         -2.6195642259        5.9390906240       -2.1247718304
 H         -3.9970159853        5.2406724375       -0.1938033585
 H         -5.1103692291        3.8950727191        1.9420918762
 H         -5.6561313398        2.2651942559        3.7198673883
 H         -4.3523100759        0.2077608988        3.9759429378
 H         -2.4788043110       -0.3075266847        2.4589851064
 H          0.8529014234        1.7118281693        0.2839350625
 H          1.9031730899        1.7260777976       -1.9260274544
 H          3.4691296412        3.2669114009       -3.0391597237
 H          5.8555693505        3.2580141433       -2.4865701098
 H          6.7579060811        1.6779578192       -0.8114253756
 H          7.0927621071       -0.2788632555        1.0911718315
 H          6.7694934904       -2.0963553786        2.7373522465
 H          4.5352807883       -2.9969521173        3.1836994773
 H          2.5581311589       -2.1424298198        1.9937863866
 H          1.6696294413       -2.4723907534       -0.1589514828
  62
  -101.545254860200       0.204560170320301      !
 O         -0.1547997583       -4.2289306117       -0.0167691853
 C         -0.8054257721       -3.2859579381       -0.5250442276
 C         -1.9242808981       -3.4988532357       -1.3875598264
 C         -2.5488762018       -2.5638696904       -2.2538313443
 N         -3.5501901854       -2.8611116497       -3.0331756613
 C         -4.0126909700       -4.1089291102       -3.0433508694
 N         -3.4490840162       -5.0751066996       -2.3238063640
 C         -2.4488193970       -4.8181026438       -1.5446275002
 C         -0.3918902777       -1.8910969414       -0.2460768318
 C         -1.3030040974       -0.8417045387       -0.1038080166
 C         -0.8503017429        0.4340058995        0.2091779674
 N         -1.7830069487        1.4658911555        0.3901122824
 C         -2.7293130262        1.8609666681       -0.5299665190
 C         -2.9012140505        1.4503190821       -1.8440255327
 C         -3.9161126793        2.0370545544       -2.5755225349
 C         -4.7364797462        3.0152453103       -2.0187372107
 C         -4.5555481178        3.4441563107       -0.7160884552
 C         -3.5436885235        2.8684446672        0.0378017820
 C         -3.0610558843        3.0718874675        1.3782608426
 C         -3.4557746308        3.8929083407        2.4239196210
 C         -2.7664961022        3.8170687622        3.6208172659
 C         -1.7019624222        2.9340729906        3.7835966297
 C         -1.2891467958        2.1062818334        2.7561170301
 C         -1.9708374301        2.1867846329        1.5501358700
 C          0.5054552615        0.6851888394        0.3922585555
 C          1.4122700086       -0.3653587458        0.2658082849
 N          2.7841583482       -0.1233876694        0.3931221420
 C          3.4894374784        0.8314097944       -0.3099360869
 C          3.0368741794        1.7536742995       -1.2434869786
 C          3.9706301480        2.5870884252       -1.8309312623
 C          5.3220875031        2.5047983136       -1.5067287565
 C          5.7811521863        1.5746029336       -0.5911392955
 C          4.8633632607        0.7270094517        0.0103281583
 C          4.9794582293       -0.3510666641        0.9570184228
 C          6.0474451629       -0.9102546455        1.6419058553
 C          5.7987839089       -1.9562517265        2.5128002454
 C          4.5064215723       -2.4362016981        2.7100148570
 C          3.4253595537       -1.8947589526        2.0393217913
 C          3.6724870068       -0.8557935463        1.1522539033
 C          0.9661711023       -1.6426019208       -0.0383649707
 H         -2.1750677427       -1.5516176795       -2.3292254089
 H         -4.8544819058       -4.3476838163       -3.6694065641
 H         -1.9899749243       -5.6235035232       -0.9860273264
 H         -2.3653163516       -1.0174230326       -0.1626288094
 H         -2.2552024328        0.7064752720       -2.2846856981
 H         -4.0736696833        1.7310542888       -3.5985226158
 H         -5.5204800517        3.4493311012       -2.6202743678
 H         -5.1829039526        4.2143194267       -0.2941468080
 H         -4.2869536994        4.5708599795        2.3045694467
 H         -3.0595257170        4.4470671258        4.4468797708
 H         -1.1899131593        2.8922264589        4.7330678963
 H         -0.4726833671        1.4127529420        2.8902687086
 H          0.8458662096        1.6762939208        0.6466277919
 H          1.9939288317        1.8088701286       -1.5161572212
 H          3.6439632128        3.3130292471       -2.5601197270
 H          6.0209093035        3.1730200897       -1.9865060665
 H          6.8313077621        1.5029107354       -0.3530882015
 H          7.0484290671       -0.5326657467        1.4995202362
 H          6.6169092256       -2.4066667910        3.0540330777
 H          4.3437236897       -3.2490223606        3.4014315763
 H          2.4259528756       -2.2679713640        2.2000707712
 H          1.6665297232       -2.4546914484       -0.1482698500
  62
  -101.545013673300       0.158481747695088      !
 O         -0.1877627775       -4.1838067025        0.0729651302
 C         -0.8104140557       -3.2592291016       -0.4988504220
 C         -1.8905168466       -3.4920230337       -1.4008437091
 C         -2.4768796552       -2.5722185053       -2.3096004986
 N         -3.4439964023       -2.8824803714       -3.1252351051
 C         -3.9062656995       -4.1309090606       -3.1336707271
 N         -3.3755162612       -5.0839425276       -2.3722558378
 C         -2.4109038053       -4.8141586773       -1.5544802899
 C         -0.3964578149       -1.8544397049       -0.2590438060
 C         -1.3093675115       -0.8051852785       -0.1372325377
 C         -0.8581325460        0.4790316265        0.1475253243
 N         -1.7904198506        1.5051705362        0.3485437859
 C         -2.8367720180        1.8282966813       -0.4898885242
 C         -3.1227278219        1.3585949515       -1.7637846919
 C         -4.2292813549        1.8758409478       -2.4103480571
 C         -5.0297240447        2.8457439916       -1.8121787838
 C         -4.7348545070        3.3373890039       -0.5534252237
 C         -3.6301902206        2.8308768930        0.1148085868
 C         -3.0294177726        3.1091403847        1.3922742261
 C         -3.3567892155        3.9619853914        2.4357478419
 C         -2.5589200421        3.9616692930        3.5654022983
 C         -1.4558833742        3.1178810218        3.6647608431
 C         -1.1101914063        2.2588751559        2.6379476083
 C         -1.8969731076        2.2680551451        1.4948096286
 C          0.5004823415        0.7358188332        0.3117623031
 C          1.4063673884       -0.3177010365        0.2185611058
 N          2.7782290654       -0.0922079574        0.3707999172
 C          3.5310719766        0.8235077687       -0.3345132813
 C          3.1304163991        1.7486318674       -1.2885562538
 C          4.1058740150        2.5362167676       -1.8718542951
 C          5.4474924494        2.4066826117       -1.5231294964
 C          5.8544822731        1.4743320228       -0.5854253415
 C          4.8945106552        0.6722909574        0.0123568823
 C          4.9538495468       -0.3929264069        0.9787020344
 C          5.9875551322       -0.9839592803        1.6892854016
 C          5.6831139596       -2.0045863175        2.5724656881
 C          4.3692256701       -2.4268050135        2.7588735120
 C          3.3219330747       -1.8531712048        2.0622730120
 C          3.6256911265       -0.8431754886        1.1594665874
 C          0.9598153275       -1.6023606989       -0.0567851021
 H         -2.0976466601       -1.5615366857       -2.3825257251
 H         -4.7192952151       -4.3814830497       -3.7919067707
 H         -1.9764569521       -5.6085908582       -0.9619582606
 H         -2.3710653179       -0.9886702635       -0.1846148684
 H         -2.4964814391        0.6217223496       -2.2417590369
 H         -4.4748242621        1.5204509226       -3.3994897941
 H         -5.8876381467        3.2241693722       -2.3467302438
 H         -5.3465986604        4.1018093217       -0.0993398786
 H         -4.2202641726        4.6056460314        2.3665145196
 H         -2.7972742040        4.6174098008        4.3889582812
 H         -0.8596884875        3.1298427090        4.5646814659
 H         -0.2655317264        1.5933887731        2.7312969319
 H          0.8424169171        1.7341533873        0.5331715074
 H          2.0948137144        1.8407458129       -1.5787162732
 H          3.8202684307        3.2644231136       -2.6159558000
 H          6.1799497530        3.0400450233       -2.0000271664
 H          6.8967357543        1.3667284432       -0.3269438205
 H          7.0055860528       -0.6514757776        1.5559043021
 H          6.4738917325       -2.4802641151        3.1323629756
 H          4.1618662895       -3.2176552288        3.4636068718
 H          2.3054598394       -2.1802412631        2.2158083414
 H          1.6608287499       -2.4165228747       -0.1436325146
  62
  -101.544953529300       0.148709592377372      !
 O         -0.1671479026       -4.2484968127        0.0078919128
 C         -0.8128866999       -3.3213563127       -0.5336919564
 C         -1.9325825553       -3.5502639452       -1.3884994528
 C         -2.5297309238       -2.6307815889       -2.2900517580
 N         -3.5396257986       -2.9251601434       -3.0582192954
 C         -4.0373307116       -4.1598892592       -3.0227919658
 N         -3.4985985969       -5.1153559742       -2.2708045207
 C         -2.4909979245       -4.8605211376       -1.5003917448
 C         -0.3966164989       -1.9168285422       -0.2991859027
 C         -1.3137579213       -0.8735961999       -0.1520120217
 C         -0.8644785758        0.4113142690        0.1322741399
 N         -1.7903133485        1.4412335067        0.3383536495
 C         -2.8374555311        1.7745594241       -0.4958966251
 C         -3.1762602831        1.2591887591       -1.7388056144
 C         -4.2731141994        1.7962826640       -2.3856439407
 C         -5.0126914221        2.8315556539       -1.8197730225
 C         -4.6638671734        3.3691938445       -0.5941549929
 C         -3.5688953825        2.8424457414        0.0743742474
 C         -2.9268747178        3.1543859331        1.3234575796
 C         -3.1857306106        4.0784215955        2.3246087148
 C         -2.3634426135        4.0969708773        3.4363875271
 C         -1.3064829992        3.1993899424        3.5617255674
 C         -1.0286369393        2.2700994515        2.5764692851
 C         -1.8350866426        2.2637704606        1.4466782226
 C          0.4949064763        0.6699960386        0.2856673322
 C          1.4062010520       -0.3770200976        0.1713064489
 N          2.7739990731       -0.1368937254        0.3264321115
 C          3.4947649179        0.8662362107       -0.2880558966
 C          3.0770127262        1.8246402099       -1.2016512143
 C          4.0221938031        2.7103740042       -1.6852040905
 C          5.3529464029        2.6441143089       -1.2816014304
 C          5.7803919521        1.6751264210       -0.3915587760
 C          4.8504517226        0.7753383871        0.1062166312
 C          4.9395655037       -0.3456068923        1.0044475932
 C          5.9824215457       -0.9149595478        1.7191539471
 C          5.7120564795       -2.0053891515        2.5265648383
 C          4.4211867194       -2.5158452273        2.6352632307
 C          3.3648318823       -1.9639040925        1.9342949155
 C          3.6357292114       -0.8842789362        1.1044582498
 C          0.9626297012       -1.6595540784       -0.1199217197
 H         -2.1207187131       -1.6349576668       -2.3991110164
 H         -4.8866338870       -4.3969963882       -3.6390143973
 H         -2.0529133883       -5.6603210936       -0.9181391973
 H         -2.3747117610       -1.0641163161       -0.1810740243
 H         -2.5980905278        0.4720154467       -2.1952434735
 H         -4.5588652999        1.4039307577       -3.3497063321
 H         -5.8653921961        3.2230878574       -2.3530811998
 H         -5.2273683641        4.1833149633       -0.1649537516
 H         -4.0148326857        4.7635495824        2.2361903053
 H         -2.5466788857        4.8097080146        4.2259456622
 H         -0.6922838857        3.2252976349        4.4491544312
 H         -0.2206795376        1.5639660120        2.6926806534
 H          0.8343771517        1.6669259870        0.5156703917
 H          2.0526334847        1.8695466625       -1.5386734109
 H          3.7212661262        3.4661772216       -2.3949395547
 H          6.0610781821        3.3548302815       -1.6797589716
 H          6.8155492622        1.6144735497       -0.0925517852
 H          6.9809387952       -0.5119333708        1.6470548857
 H          6.5104963841       -2.4657855580        3.0883386015
 H          4.2381523877       -3.3600017663        3.2825351637
 H          2.3665100500       -2.3596482623        2.0339710883
 H          1.6651583812       -2.4687514587       -0.2340606952
  62
  -101.544364051100       7.969545590953606E-002 !
 O         -3.0094489510       -2.9307468656       -0.5208087825
 C         -1.8987351013       -2.6718135944       -1.0427335595
 C         -1.3385161868       -3.4700569624       -2.0883793175
 C         -0.3015150148       -3.1181825978       -2.9917481155
 N          0.1313849932       -3.9080763569       -3.9344510678
 C         -0.4337530379       -5.1031298171       -4.0849920851
 N         -1.4677029895       -5.4921237972       -3.3440655901
 C         -1.9277605475       -4.7315855478       -2.4037336422
 C         -1.1412426463       -1.4912018586       -0.5743482497
 C         -1.8698608087       -0.4066455403       -0.0783261161
 C         -1.2212681507        0.7053406454        0.4354356340
 N         -1.9755484236        1.7977329879        0.8812616242
 C         -2.9912143919        2.4045147386        0.1718449671
 C         -3.4473240275        2.1453853386       -1.1137027442
 C         -4.4727851366        2.9322392904       -1.6040288585
 C         -5.0285424963        3.9580769882       -0.8438227092
 C         -4.5630796089        4.2350979919        0.4292278403
 C         -3.5353653927        3.4586935172        0.9423570135
 C         -2.8092248250        3.4714656561        2.1845149320
 C         -2.8928047173        4.2455275487        3.3316180902
 C         -2.0342043254        3.9697633261        4.3808951563
 C         -1.1146069532        2.9276241516        4.3001267674
 C         -1.0157942892        2.1419145475        3.1673496968
 C         -1.8560048987        2.4290586127        2.1008419353
 C          0.1707786547        0.7440323913        0.4924735217
 C          0.8981366807       -0.3526200424        0.0348000250
 N          2.2973979243       -0.3444103249        0.1218994759
 C          3.1707938446       -0.6249732861       -0.9081907398
 C          2.9049791655       -0.8845379226       -2.2451016574
 C          3.9767572027       -1.1209130733       -3.0847356569
 C          5.2866537691       -1.0871592897       -2.6134042802
 C          5.5607359585       -0.7965148128       -1.2890855782
 C          4.4997380252       -0.5594844697       -0.4281166973
 C          4.4111832073       -0.2231761121        0.9678595011
 C          5.3541587751       -0.0323276166        1.9665362573
 C          4.9150500813        0.2678071673        3.2433859419
 C          3.5559074315        0.3585021657        3.5318934382
 C          2.5989965871        0.1694447725        2.5527439200
 C          3.0330818049       -0.1025840103        1.2633586220
 C          0.2532962124       -1.4609382581       -0.4996445814
 H          0.1459319148       -2.1347721940       -2.9570040865
 H         -0.0593806627       -5.7646017636       -4.8464184961
 H         -2.7866763185       -5.0567534728       -1.8313535532
 H         -2.9463522386       -0.4592678011       -0.0852460945
 H         -3.0126393983        1.3610640990       -1.7137727632
 H         -4.8481951999        2.7479919207       -2.5992383418
 H         -5.8297022457        4.5490558931       -1.2607439328
 H         -4.9860138550        5.0392711219        1.0115883382
 H         -3.6171201261        5.0423283364        3.4030884681
 H         -2.0829350888        4.5619814443        5.2819327501
 H         -0.4692046258        2.7241141343        5.1412940261
 H         -0.3194299025        1.3200561141        3.1221572984
 H          0.6804308543        1.6196291049        0.8616906965
 H          1.8948053499       -0.8889204144       -2.6224088088
 H          3.7920900926       -1.3343553320       -4.1265051728
 H          6.0983977418       -1.2817832171       -3.2975531481
 H          6.5775756268       -0.7521434610       -0.9302327826
 H          6.4074608472       -0.1209014121        1.7489157175
 H          5.6335273393        0.4234957773        4.0336085767
 H          3.2420906486        0.5758567923        4.5417366424
 H          1.5472712982        0.2137893755        2.7872690982
 H          0.8397944636       -2.3173863095       -0.7914640091
  62
  -101.544363526900       7.965126064147306E-002 !
 O          0.0154376495       -3.7778712320       -1.9514369728
 C         -0.7559498210       -3.1633998258       -1.1762585176
 C         -1.9912354115       -3.7214629999       -0.7231007285
 C         -2.7858600203       -3.3091091329        0.3789728267
 N         -3.8930273871       -3.9016260378        0.7296469677
 C         -4.3033932685       -4.9642935890        0.0428278908
 N         -3.5872880024       -5.4775956617       -0.9539315896
 C         -2.4812133367       -4.9196612205       -1.3259946932
 C         -0.3685889544       -1.8192569695       -0.6945101580
 C         -1.2902691957       -0.7944082168       -0.4682683918
 C         -0.8466729425        0.4684974565       -0.0979972162
 N         -1.7780312820        1.4962687218        0.1100004862
 C         -1.7692345589        2.7279879879       -0.5089738468
 C         -0.9054265220        3.2221289121       -1.4757753044
 C         -1.1309869011        4.4999717620       -1.9515634633
 C         -2.1957163965        5.2679624896       -1.4872000824
 C         -3.0766841136        4.7705147230       -0.5438013034
 C         -2.8692382852        3.4907967344       -0.0515314034
 C         -3.5728772834        2.6632142438        0.8920276226
 C         -4.7040954059        2.8500052257        1.6721998476
 C         -5.1095288697        1.8241148619        2.5068538032
 C         -4.3921158944        0.6328718074        2.5824802788
 C         -3.2606977645        0.4262161649        1.8166271278
 C         -2.8645736266        1.4403635903        0.9565248196
 C          0.5112579156        0.7297691238        0.0659263057
 C          1.4317758333       -0.2884163168       -0.1761444162
 N          2.8006459884       -0.0539048693       -0.0026077408
 C          3.5182146752        1.0066057071       -0.5141267705
 C          3.1007511038        2.0445844460       -1.3354898815
 C          4.0403259863        2.9802615611       -1.7255921270
 C          5.3689623810        2.8856306609       -1.3206843091
 C          5.7980758101        1.8389783177       -0.5241634859
 C          4.8720560993        0.8897518014       -0.1198507222
 C          4.9629654729       -0.3080101608        0.6721902039
 C          6.0051566492       -0.9341028740        1.3386765074
 C          5.7370340689       -2.0935580811        2.0440461186
 C          4.4480823355       -2.6173594942        2.1001666479
 C          3.3934907420       -2.0104260551        1.4440024391
 C          3.6613936956       -0.8602518776        0.7137008574
 C          0.9958078835       -1.5440906641       -0.5698260052
 H         -2.4673275857       -2.4922302109        1.0114232280
 H         -5.2298030022       -5.4373407494        0.3173176934
 H         -1.9010130811       -5.3685872224       -2.1215449091
 H         -2.3433708494       -0.9497118620       -0.6399343333
 H         -0.0956826799        2.6197660433       -1.8571043991
 H         -0.4712894509        4.9082789442       -2.7023478240
 H         -2.3388785009        6.2629061532       -1.8803315817
 H         -3.9112960603        5.3613876250       -0.1989044098
 H         -5.2522620809        3.7786246608        1.6285923820
 H         -5.9905410518        1.9482136155        3.1178128460
 H         -4.7236361702       -0.1451866359        3.2530968197
 H         -2.6965716500       -0.4897537389        1.8956914544
 H          0.8407421016        1.7003824720        0.4007732417
 H          2.0791115242        2.1128178129       -1.6730909654
 H          3.7371310398        3.7983594361       -2.3614073475
 H          6.0741004292        3.6359978071       -1.6441369536
 H          6.8319180987        1.7572244618       -0.2256665265
 H          7.0017272818       -0.5211336117        1.3082578955
 H          6.5348088960       -2.5982990437        2.5672437000
 H          4.2662627655       -3.5155573821        2.6707098766
 H          2.3952114437       -2.4150332931        1.5048276814
 H          1.7037649542       -2.3225232497       -0.8031136186
  62
  -101.544301289800       7.457451936027958E-002 !
 O         -2.8670286052       -3.1446794587       -0.2980969468
 C         -1.8488507988       -2.7793239712       -0.9292692885
 C         -1.3625068888       -3.4485788172       -2.0898571292
 C         -0.4309901490       -2.9521836208       -3.0419927286
 N         -0.0586182373       -3.6145664540       -4.0996417907
 C         -0.5860837098       -4.8157064481       -4.3289904311
 N         -1.5226011457       -5.3341566438       -3.5384458763
 C         -1.9213608596       -4.7046528501       -2.4821077228
 C         -1.1152653684       -1.5673310211       -0.4824658531
 C         -1.8586024995       -0.4961796900        0.0111958673
 C         -1.2199461629        0.6458192854        0.4720157131
 N         -1.9853120863        1.7341379398        0.9093579152
 C         -3.0216036444        2.3145296220        0.2072989406
 C         -3.5189108425        2.0056521137       -1.0515967411
 C         -4.5646649671        2.7691519553       -1.5361873993
 C         -5.0994497070        3.8216482268       -0.7976676524
 C         -4.5932732864        4.1482067582        0.4475753606
 C         -3.5465793088        3.3941403732        0.9558235211
 C         -2.7883111735        3.4501063481        2.1772567609
 C         -2.8420020991        4.2619932751        3.3000026764
 C         -1.9629041841        4.0147115596        4.3392852570
 C         -1.0553930009        2.9607739848        4.2757367030
 C         -0.9854731945        2.1392851697        3.1666852861
 C         -1.8401832450        2.4026634961        2.1060702500
 C          0.1711910623        0.7178598166        0.4823590776
 C          0.9167946800       -0.3750197821        0.0418004949
 N          2.3152054715       -0.3379815043        0.1121688570
 C          3.1948549001       -0.7215541409       -0.8820763642
 C          2.9424343045       -1.1285989928       -2.1846467463
 C          4.0217587454       -1.4502885105       -2.9861030121
 C          5.3286242082       -1.3578878443       -2.5153430443
 C          5.5908461501       -0.9178778735       -1.2307856855
 C          4.5219464942       -0.5929743358       -0.4094790767
 C          4.4294323862       -0.1074085616        0.9408555414
 C          5.3736261815        0.2015365410        1.9083857663
 C          4.9360441667        0.6321338077        3.1475931590
 C          3.5767705191        0.7309088591        3.4305690723
 C          2.6200689011        0.4246008717        2.4812341716
 C          3.0506382976        0.0282118123        1.2234743027
 C          0.2781458875       -1.5083252668       -0.4500756367
 H         -0.0258253517       -1.9549368757       -2.9360495891
 H         -0.2635394489       -5.3715231338       -5.1914261590
 H         -2.7006957720       -5.1367714020       -1.8683346321
 H         -2.9332321173       -0.5724679705        0.0397217833
 H         -3.1023372110        1.1995000097       -1.6355599572
 H         -4.9741970505        2.5440672879       -2.5093120727
 H         -5.9174882692        4.3928832767       -1.2093358758
 H         -5.0003931843        4.9718254206        1.0137892557
 H         -3.5605263508        5.0648236802        3.3615145179
 H         -1.9882112930        4.6365573432        5.2210845476
 H         -0.3977843477        2.7759511072        5.1117240299
 H         -0.3041788909        1.3044706463        3.1365471596
 H          0.6660781087        1.6199186393        0.8050389234
 H          1.9385792007       -1.1863996514       -2.5715822142
 H          3.8430988458       -1.7786531051       -3.9987101628
 H          6.1459224104       -1.6237347740       -3.1681796558
 H          6.6041896211       -0.8257389751       -0.8711159573
 H          6.4270049085        0.1030663752        1.6956079375
 H          5.6547686975        0.8835387028        3.9124830482
 H          3.2609005431        1.0486441018        4.4128071981
 H          1.5707650800        0.4745625335        2.7205734824
 H          0.8673720919       -2.3619200960       -0.7449629533
  62
  -101.543368636800       2.779539311917871E-002 !
 O          0.1041211944       -4.2062238047        0.1441780249
 C         -0.7314653348       -3.3538163970       -0.2483161346
 C         -2.0385145818       -3.7271639948       -0.6970388424
 C         -2.9456161500       -2.9751994014       -1.4889902007
 N         -4.1262564639       -3.4116059112       -1.8330389710
 C         -4.5036879790       -4.6283174132       -1.4529709748
 N         -3.6876348853       -5.4478073773       -0.7960674136
 C         -2.5062953861       -5.0508902715       -0.4447461446
 C         -0.3570890593       -1.9282204230       -0.1995973101
 C         -1.2769179825       -0.8952206528       -0.0039538191
 C         -0.8293614972        0.4104619981        0.1439988872
 N         -1.7601545156        1.4475266550        0.2971472991
 C         -1.8015067602        2.5931847956       -0.4691613506
 C         -1.0012662425        2.9669857737       -1.5393626674
 C         -1.2670226935        4.1751795124       -2.1554190804
 C         -2.3126797160        4.9899751075       -1.7292627596
 C         -3.1364771736        4.6063802082       -0.6863198902
 C         -2.8872039941        3.3981475852       -0.0527420932
 C         -3.5347340465        2.6833474190        1.0149181401
 C         -4.6368306910        2.9517228806        1.8122971921
 C         -4.9965920747        2.0267848299        2.7757843264
 C         -4.2627326279        0.8573957010        2.9584028784
 C         -3.1582930439        0.5695088031        2.1783558562
 C         -2.8080254397        1.4820515049        1.1923207194
 C          0.5315170985        0.7067186343        0.1555690046
 C          1.4547404260       -0.3238668668       -0.0260060657
 N          2.8266749070       -0.0604132175        0.0244920346
 C          3.4777838101        1.0202295772       -0.5387211195
 C          2.9844289378        2.0477969589       -1.3317540992
 C          3.8685093942        3.0166632304       -1.7686810588
 C          5.2211188280        2.9645403161       -1.4457187177
 C          5.7295776648        1.9219957219       -0.6922146650
 C          4.8586945583        0.9427369383       -0.2404238214
 C          5.0417569701       -0.2535887844        0.5363975259
 C          6.1555061915       -0.8506856382        1.1065908714
 C          5.9828828997       -2.0193596078        1.8259406798
 C          4.7162706533       -2.5703227970        1.9984114913
 C          3.5912988631       -1.9898197434        1.4420514074
 C          3.7628598487       -0.8394624936        0.6819492184
 C          1.0084531909       -1.6218889064       -0.2252480922
 H         -2.6660734899       -2.0085342554       -1.8873238287
 H         -5.4908715560       -4.9715084051       -1.7091133592
 H         -1.8468460332       -5.7416601779        0.0645261301
 H         -2.3335396815       -1.0946400196        0.0590032025
 H         -0.2118496862        2.3228134543       -1.8941992971
 H         -0.6557345785        4.4892247056       -2.9881096498
 H         -2.4887452941        5.9280962826       -2.2331416032
 H         -3.9604969546        5.2291222260       -0.3736282993
 H         -5.1987586236        3.8637385378        1.6812427486
 H         -5.8545814381        2.2142494094        3.4031918907
 H         -4.5601427644        0.1609749905        3.7277488348
 H         -2.5838366139       -0.3301549139        2.3380992270
 H          0.8599512499        1.7117413313        0.3638472660
 H          1.9458373939        2.0914752407       -1.6147087992
 H          3.4991616753        3.8298829942       -2.3752464279
 H          5.8802913373        3.7424230549       -1.7996509984
 H          6.7817869071        1.8676232243       -0.4588446571
 H          7.1334666012       -0.4095649388        0.9894085951
 H          6.8372188983       -2.5066753723        2.2704966243
 H          4.6056315416       -3.4720060124        2.5813255808
 H          2.6173581397       -2.4212464675        1.6053169687
 H          1.7050283025       -2.4225177875       -0.4093353859
  62
  -101.542344053800       9.399550289147199E-003 !
 O         -0.0917001656       -4.2524178522        0.0971022137
 C         -0.7978697595       -3.3326489656       -0.3802934570
 C         -1.9781054856       -3.5843543710       -1.1455910823
 C         -2.6888000006       -2.6836386971       -1.9830924264
 N         -3.7456177636       -3.0226466305       -2.6670562167
 C         -4.1836309775       -4.2772168446       -2.6047114834
 N         -3.5437477139       -5.2133147771       -1.9093476019
 C         -2.4879341862       -4.9159516618       -1.2232785992
 C         -0.3877838195       -1.9279362985       -0.1626890111
 C         -1.3035809498       -0.8876397501        0.0174714335
 C         -0.8458948356        0.3997681705        0.2477839789
 N         -1.7825300743        1.4440304042        0.4099945686
 C         -2.3209746262        2.1826988012       -0.6155473448
 C         -2.0548813925        2.1112396440       -1.9756919404
 C         -2.7322588002        2.9833873303       -2.8065685726
 C         -3.6484845508        3.9018835463       -2.2987430129
 C         -3.9158998803        3.9756673625       -0.9429949581
 C         -3.2501905325        3.1105000717       -0.0876551976
 C         -3.2671584528        2.8979358523        1.3358664051
 C         -3.9609125324        3.4755158065        2.3886068424
 C         -3.7284224191        3.0075193392        3.6699486816
 C         -2.8195322602        1.9793422352        3.9105559691
 C         -2.1143783201        1.3873945984        2.8797376233
 C         -2.3453767696        1.8548489748        1.5937299563
 C          0.5122745912        0.6774598987        0.3342839770
 C          1.4270835937       -0.3655335564        0.1834771329
 N          2.7988459699       -0.1087132410        0.2616153538
 C          3.4693245483        0.8951003990       -0.4072441942
 C          2.9849388032        1.8413349660       -1.3004462162
 C          3.8886628203        2.7307889707       -1.8518037830
 C          5.2432978663        2.6792343347       -1.5350915382
 C          5.7360810316        1.7221947034       -0.6660397049
 C          4.8483805354        0.8198609416       -0.1004227394
 C          5.0054951390       -0.2918370914        0.7999552804
 C          6.0983584131       -0.8461479065        1.4489606691
 C          5.8918529952       -1.9322410360        2.2806341630
 C          4.6155242739       -2.4529781053        2.4775616454
 C          3.5105373000       -1.9163587608        1.8429270492
 C          3.7158817174       -0.8409627004        0.9890195550
 C          0.9776598907       -1.6536940634       -0.0610443675
 H         -2.3465713385       -1.6654718715       -2.1178844476
 H         -5.0704475936       -4.5473016290       -3.1506140478
 H         -1.9654111884       -5.6977342971       -0.6873563490
 H         -2.3654821572       -1.0748711974        0.0270181756
 H         -1.3446361452        1.3967170440       -2.3658477507
 H         -2.5484670017        2.9519066678       -3.8698807438
 H         -4.1579132680        4.5667391975       -2.9795945936
 H         -4.6267535449        4.6901826191       -0.5570646031
 H         -4.6672080951        4.2716934450        2.2093120888
 H         -4.2606103380        3.4438104850        4.5016221308
 H         -2.6639627717        1.6371122398        4.9225368924
 H         -1.4111222376        0.5881521307        3.0609649999
 H          0.8478452315        1.6789242697        0.5519875963
 H          1.9405141090        1.8763620443       -1.5703678932
 H          3.5352159860        3.4776597354       -2.5466389647
 H          5.9177792167        3.3916572596       -1.9851586268
 H          6.7890167369        1.6722866607       -0.4347987877
 H          7.0860941982       -0.4346736106        1.3082801084
 H          6.7296617374       -2.3810838070        2.7922996368
 H          4.4832582365       -3.2938487658        3.1413773235
 H          2.5246511395       -2.3206077747        2.0103049110
 H          1.6783055854       -2.4606612583       -0.2016276914
