  62
       -101.90180411
 O         -0.0481016902       -4.0390503913        1.3272091152
 C         -0.8167314490       -3.2944898242        0.6755043934
 C         -2.0828753116       -3.7278085884        0.1795931750
 C         -2.8784679051       -3.1008729988       -0.8147984622
 N         -4.0175125090       -3.5746150564       -1.2328578003
 C         -4.4638080429       -4.7214806685       -0.7238972617
 N         -3.7554065511       -5.4255648496        0.1542068579
 C         -2.6170811826       -4.9887345437        0.5867925643
 C         -0.3986100583       -1.9014112020        0.3831370176
 C         -1.2928472615       -0.8283865003        0.3931407070
 C         -0.8289175604        0.4644796637        0.1765032692
 N         -1.7190782136        1.5429026966        0.2471446196
 C         -2.9250567658        1.6487006118       -0.4146778425
 C         -3.5004396547        0.7959171251       -1.3457595757
 C         -4.7216012730        1.1542204852       -1.8845927603
 C         -5.3551222076        2.3391268615       -1.5190484636
 C         -4.7741248734        3.2075351293       -0.6128575825
 C         -3.5505803980        2.8656973029       -0.0565807185
 C         -2.6719644890        3.5150415260        0.8794174398
 C         -2.7421146548        4.7069499548        1.5848145803
 C         -1.7078540313        5.0285583873        2.4447138373
 C         -0.6242520459        4.1711395420        2.6154898494
 C         -0.5320935002        2.9782959442        1.9225683929
 C         -1.5549303567        2.6623020628        1.0389498910
 C          0.5252920171        0.7056945802       -0.0386832397
 C          1.4207207682       -0.3608244222       -0.0158014974
 N          2.7840132484       -0.1370846000       -0.2254921685
 C          3.3344946526        0.6061586446       -1.2491758535
 C          2.7107887552        1.2597542545       -2.3034600923
 C          3.5110275706        1.9221122859       -3.2159373156
 C          4.8978465405        1.9302323515       -3.0940556285
 C          5.5264281010        1.2590874881       -2.0604827258
 C          4.7444198565        0.5870486038       -1.1336523552
 C          5.0479212535       -0.2135946437        0.0231258167
 C          6.2312237871       -0.5801335207        0.6459907367
 C          6.1635405365       -1.3654626078        1.7829707451
 C          4.9374455748       -1.7701598394        2.3041585990
 C          3.7442591773       -1.4155582280        1.7021245011
 C          3.8080993873       -0.6473020108        0.5474333973
 C          0.9608688970       -1.6537347352        0.1924819166
 H         -2.5277849769       -2.2004575118       -1.3017518776
 H         -5.4158226590       -5.1009444823       -1.0509158303
 H         -2.0464819774       -5.5918513816        1.2805379689
 H         -2.3312576308       -0.9784893361        0.6420153910
 H         -3.0086911618       -0.1135188749       -1.6513200290
 H         -5.1905442173        0.5006741869       -2.6043008645
 H         -6.3100823960        2.5837172716       -1.9584119331
 H         -5.2579014214        4.1338815462       -0.3438165802
 H         -3.5895544249        5.3644530328        1.4658021316
 H         -1.7423017825        5.9525178332        3.0015657941
 H          0.1597805389        4.4400227162        3.3071808877
 H          0.3009978793        2.3099569278        2.0781524282
 H          0.8782881645        1.7119850760       -0.1961133093
 H          1.6379496525        1.2397550075       -2.4199490219
 H          3.0492791179        2.4396962923       -4.0432314362
 H          5.4886822367        2.4605549567       -3.8253342024
 H          6.6023411889        1.2522190243       -1.9768259309
 H          7.1819032458       -0.2556894996        0.2515167636
 H          7.0731893254       -1.6650297128        2.2808256677
 H          4.9153451170       -2.3724223033        3.1996217632
 H          2.7992973723       -1.7247604099        2.1200197821
 H          1.6458315649       -2.4856997382        0.1865633405
