  62
       -101.90180411
 O         -0.0481016902       -4.0390503913        1.3272091152
 C         -0.8167314490       -3.2944898242        0.6755043934
 C         -2.0828753116       -3.7278085884        0.1795931750
 C         -2.8784679051       -3.1008729988       -0.8147984622
 N         -4.0175125090       -3.5746150564       -1.2328578003
 C         -4.4638080429       -4.7214806685       -0.7238972617
 N         -3.7554065511       -5.4255648496        0.1542068579
 C         -2.6170811826       -4.9887345437        0.5867925643
 C         -0.3986100583       -1.9014112020        0.3831370176
 C         -1.2928472615       -0.8283865003        0.3931407070
 C         -0.8289175604        0.4644796637        0.1765032692
 N         -1.7190782136        1.5429026966        0.2471446196
 C         -2.9250567658        1.6487006118       -0.4146778425
 C         -3.5004396547        0.7959171251       -1.3457595757
 C         -4.7216012730        1.1542204852       -1.8845927603
 C         -5.3551222076        2.3391268615       -1.5190484636
 C         -4.7741248734        3.2075351293       -0.6128575825
 C         -3.5505803980        2.8656973029       -0.0565807185
 C         -2.6719644890        3.5150415260        0.8794174398
 C         -2.7421146548        4.7069499548        1.5848145803
 C         -1.7078540313        5.0285583873        2.4447138373
 C         -0.6242520459        4.1711395420        2.6154898494
 C         -0.5320935002        2.9782959442        1.9225683929
 C         -1.5549303567        2.6623020628        1.0389498910
 C          0.5252920171        0.7056945802       -0.0386832397
 C          1.4207207682       -0.3608244222       -0.0158014974
 N          2.7840132484       -0.1370846000       -0.2254921685
 C          3.3344946526        0.6061586446       -1.2491758535
 C          2.7107887552        1.2597542545       -2.3034600923
 C          3.5110275706        1.9221122859       -3.2159373156
 C          4.8978465405        1.9302323515       -3.0940556285
 C          5.5264281010        1.2590874881       -2.0604827258
 C          4.7444198565        0.5870486038       -1.1336523552
 C          5.0479212535       -0.2135946437        0.0231258167
 C          6.2312237871       -0.5801335207        0.6459907367
 C          6.1635405365       -1.3654626078        1.7829707451
 C          4.9374455748       -1.7701598394        2.3041585990
 C          3.7442591773       -1.4155582280        1.7021245011
 C          3.8080993873       -0.6473020108        0.5474333973
 C          0.9608688970       -1.6537347352        0.1924819166
 H         -2.5277849769       -2.2004575118       -1.3017518776
 H         -5.4158226590       -5.1009444823       -1.0509158303
 H         -2.0464819774       -5.5918513816        1.2805379689
 H         -2.3312576308       -0.9784893361        0.6420153910
 H         -3.0086911618       -0.1135188749       -1.6513200290
 H         -5.1905442173        0.5006741869       -2.6043008645
 H         -6.3100823960        2.5837172716       -1.9584119331
 H         -5.2579014214        4.1338815462       -0.3438165802
 H         -3.5895544249        5.3644530328        1.4658021316
 H         -1.7423017825        5.9525178332        3.0015657941
 H          0.1597805389        4.4400227162        3.3071808877
 H          0.3009978793        2.3099569278        2.0781524282
 H          0.8782881645        1.7119850760       -0.1961133093
 H          1.6379496525        1.2397550075       -2.4199490219
 H          3.0492791179        2.4396962923       -4.0432314362
 H          5.4886822367        2.4605549567       -3.8253342024
 H          6.6023411889        1.2522190243       -1.9768259309
 H          7.1819032458       -0.2556894996        0.2515167636
 H          7.0731893254       -1.6650297128        2.2808256677
 H          4.9153451170       -2.3724223033        3.1996217632
 H          2.7992973723       -1.7247604099        2.1200197821
 H          1.6458315649       -2.4856997382        0.1865633405
  62
       -101.90144566
 O         -0.0516072349       -3.9516073635        1.3881474102
 C         -0.8058010303       -3.2224669665        0.7032697712
 C         -2.0440469014       -3.6778408866        0.1612469861
 C         -2.8332601755       -3.0574426642       -0.8427196816
 N         -3.9408149792       -3.5645068068       -1.3042880421
 C         -4.3596029057       -4.7373082017       -0.8336588721
 N         -3.6547012939       -5.4321536886        0.0551739896
 C         -2.5480171707       -4.9628568508        0.5316486398
 C         -0.3900984294       -1.8284337119        0.4097346557
 C         -1.2860840773       -0.7578965317        0.3913821350
 C         -0.8211633218        0.5336954288        0.1687793684
 N         -1.7188428838        1.6071477914        0.2351158709
 C         -2.9262747048        1.6988561804       -0.4251341360
 C         -3.4596730178        0.8741636655       -1.4052210598
 C         -4.6911415321        1.2114353072       -1.9341647858
 C         -5.3751497516        2.3475102472       -1.5090843462
 C         -4.8368246553        3.1881208688       -0.5516381279
 C         -3.6029598899        2.8677475963       -0.0054579043
 C         -2.7557783229        3.4993117810        0.9711109042
 C         -2.8808152734        4.6417599643        1.7473400993
 C         -1.8642082818        4.9555947991        2.6309307453
 C         -0.7417655844        4.1407713114        2.7522803757
 C         -0.5951586860        2.9968427900        1.9896052230
 C         -1.6040019999        2.6869034802        1.0884687457
 C          0.5340004514        0.7761228261       -0.0398062785
 C          1.4292356340       -0.2894743046        0.0078908939
 N          2.7957042493       -0.0809928329       -0.2050110661
 C          3.3581733683        0.5463050715       -1.2972108085
 C          2.7408287843        1.1508350787       -2.3834919038
 C          3.5500245779        1.6849164610       -3.3693942241
 C          4.9380116807        1.6166869807       -3.2847499890
 C          5.5583242265        1.0000526437       -2.2127509874
 C          4.7677030421        0.4560421322       -1.2121863114
 C          5.0579310051       -0.2649674602       -0.0005985153
 C          6.2336734189       -0.6501261306        0.6255631183
 C          6.1496722316       -1.3401509292        1.8218828803
 C          4.9163277370       -1.6347138905        2.3975676558
 C          3.7307211833       -1.2613242222        1.7925494420
 C          3.8102375238       -0.5873779087        0.5813957526
 C          0.9708768677       -1.5787951306        0.2383985392
 H         -2.5060570363       -2.1325126866       -1.2988513905
 H         -5.2852282465       -5.1454509028       -1.1993312259
 H         -1.9770604259       -5.5546329605        1.2350392462
 H         -2.3285949363       -0.9062888482        0.6243303834
 H         -2.9272261131        0.0031726854       -1.7537899111
 H         -5.1285443398        0.5808543261       -2.6931385504
 H         -6.3362538999        2.5773446672       -1.9431610605
 H         -5.3608720284        4.0774800021       -0.2367135102
 H         -3.7572201296        5.2661717205        1.6654513900
 H         -1.9428397319        5.8399776998        3.2447195992
 H          0.0292338587        4.4039137254        3.4606337345
 H          0.2685191895        2.3597420077        2.1044935049
 H          0.8867830650        1.7805423677       -0.2109757375
 H          1.6652566272        1.1896083562       -2.4659049133
 H          3.0946199349        2.1617246069       -4.2242642054
 H          5.5363005864        2.0457912507       -4.0740490099
 H          6.6341889709        0.9366196089       -2.1564051964
 H          7.1914647604       -0.4134396604        0.1881411096
 H          7.0531809935       -1.6522201531        2.3232495550
 H          4.8834075148       -2.1642639882        3.3375591649
 H          2.7785256056       -1.4867695844        2.2467121098
 H          1.6605322660       -2.4068492076        0.2612943265
  62
       -101.90137906
 O          0.1353391148       -3.8871872129        1.7028512825
 C         -0.7187597099       -3.2068483527        1.0849048099
 C         -2.0313653615       -3.6904140569        0.7992284501
 C         -2.9780262687       -3.1649070428       -0.1217473476
 N         -4.1444247700       -3.7053092505       -0.3360618923
 C         -4.4772450712       -4.8157751883        0.3165258356
 N         -3.6328395202       -5.4242993894        1.1453363877
 C         -2.4643187120       -4.9218370558        1.3791847269
 C         -0.3459680953       -1.8519703125        0.6200617697
 C         -1.2368408369       -0.7774158698        0.6247585490
 C         -0.8065855930        0.4821317495        0.2278176485
 N         -1.7028401957        1.5590919817        0.2597093455
 C         -1.9633257645        2.4258584812       -0.7801580405
 C         -1.4648691707        2.4261522534       -2.0752767040
 C         -1.9101940777        3.4088595581       -2.9392180586
 C         -2.8378236008        4.3646102871       -2.5329214066
 C         -3.3580353113        4.3541245715       -1.2513194369
 C         -2.9243394620        3.3780882597       -0.3667465477
 C         -3.2512885575        3.0592592547        0.9975328205
 C         -4.1018377421        3.6272881363        1.9340803905
 C         -4.1626403107        3.0675661760        3.1974142854
 C         -3.3786861192        1.9668591239        3.5339720495
 C         -2.5231980452        1.3837649520        2.6179487598
 C         -2.4761367662        1.9270082864        1.3412073757
 C          0.5111787023        0.6931319892       -0.1693588554
 C          1.4074765553       -0.3742967342       -0.1461507493
 N          2.7462889973       -0.1728655386       -0.4967273617
 C          3.2044175808        0.4837565216       -1.6196050774
 C          2.4924642059        1.0352352307       -2.6757767199
 C          3.2073432647        1.6261296461       -3.7007306225
 C          4.5989667019        1.6609476786       -3.6874642588
 C          5.3160089774        1.0880730175       -2.6521892331
 C          4.6192158295        0.4906576309       -1.6131625198
 C          5.0240066966       -0.2019578651       -0.4187401443
 C          6.2584175687       -0.5016165075        0.1371308909
 C          6.2931524982       -1.1823131436        1.3410513570
 C          5.1180921264       -1.5481546846        1.9923018275
 C          3.8759194625       -1.2594985908        1.4581992944
 C          3.8356658126       -0.5982178024        0.2378850562
 C          0.9822944499       -1.6336590624        0.2493714887
 H         -2.7414015173       -2.2970669591       -0.7237070819
 H         -5.4498155865       -5.2451463938        0.1533546320
 H         -1.7828311336       -5.4470624340        2.0358133766
 H         -2.2532193643       -0.9040760997        0.9607074425
 H         -0.7643885873        1.6736645888       -2.4027379979
 H         -1.5348061515        3.4320681551       -3.9511514454
 H         -3.1613947530        5.1172927372       -3.2355011609
 H         -4.0890563192        5.0859961499       -0.9437190827
 H         -4.6986243740        4.4898582198        1.6802643121
 H         -4.8198502362        3.4934495081        3.9402023262
 H         -3.4366807897        1.5610350275        4.5328009690
 H         -1.9055603614        0.5419652368        2.8914986804
 H          0.8471223223        1.6842228847       -0.4291767523
 H          1.4152711285        0.9919820976       -2.7062840353
 H          2.6743972472        2.0652353815       -4.5306141502
 H          5.1229213386        2.1329351162       -4.5046247608
 H          6.3951284935        1.0982293858       -2.6532003227
 H          7.1696845000       -0.2054003938       -0.3593464042
 H          7.2437486763       -1.4286437616        1.7891135875
 H          5.1756769342       -2.0675650976        2.9366612033
 H          2.9725278255       -1.5371723635        1.9774741884
 H          1.6658841227       -2.4666996610        0.2566455824
  62
       -101.90121004
 O         -0.0394864452       -4.0145000582        1.3380315365
 C         -0.8092672796       -3.2499411199        0.7105426613
 C         -2.0805597571       -3.6735743050        0.2151188832
 C         -2.9013202083       -3.0289275279       -0.7469220102
 N         -4.0377411600       -3.5117003698       -1.1638606680
 C         -4.4575196897       -4.6805306561       -0.6856549871
 N         -3.7268623506       -5.3978552640        0.1631568222
 C         -2.5904048030       -4.9532994893        0.5927316128
 C         -0.3837841344       -1.8559197200        0.4457030063
 C         -1.2715956237       -0.7773214455        0.4425813516
 C         -0.7973402460        0.5124978638        0.2381681519
 N         -1.6974826910        1.5873846457        0.2808927769
 C         -2.8291784560        1.7160062452       -0.4942498122
 C         -3.2670621226        0.9248852699       -1.5465415923
 C         -4.4306002026        1.2969571996       -2.1923799783
 C         -5.1391504169        2.4329741591       -1.8085945721
 C         -4.6953884821        3.2375165264       -0.7744854845
 C         -3.5303259262        2.8829975011       -0.1107086196
 C         -2.7777309294        3.4726368271        0.9649678962
 C         -2.9617486973        4.5936117524        1.7604759866
 C         -2.0304861259        4.8648422512        2.7466831371
 C         -0.9321191173        4.0326592761        2.9478597271
 C         -0.7263555742        2.9101515040        2.1674707633
 C         -1.6522800007        2.6402108815        1.1697887514
 C          0.5588254635        0.7515072810        0.0422664088
 C          1.4458559401       -0.3230936797        0.0613083125
 N          2.8060894959       -0.1108315930       -0.1867761827
 C          3.3182756878        0.5480232670       -1.2853767925
 C          2.6514442107        1.1525294010       -2.3421694588
 C          3.4147776907        1.7225413065       -3.3441567472
 C          4.8060351895        1.6889204566       -3.3043055210
 C          5.4755871628        1.0710315330       -2.2630460324
 C          4.7312322757        0.4912484116       -1.2470235648
 C          5.0765774114       -0.2431339521       -0.0581720639
 C          6.2812278873       -0.6057390358        0.5246597028
 C          6.2533110113       -1.3180382176        1.7105137727
 C          5.0466692203       -1.6587466556        2.3166320251
 C          3.8327729449       -1.3080375303        1.7552556228
 C          3.8559224819       -0.6073774260        0.5569442907
 C          0.9799762980       -1.6119047145        0.2729637099
 H         -2.5800379487       -2.1066865903       -1.2120247142
 H         -5.4069628251       -5.0667685973       -1.0126710532
 H         -2.0008685668       -5.5636062129        1.2644575317
 H         -2.3166907129       -0.9182662243        0.6678701089
 H         -2.7102964154        0.0547383551       -1.8590672702
 H         -4.7950400095        0.6950539431       -3.0108453928
 H         -6.0452544280        2.6908701579       -2.3352814613
 H         -5.2386610089        4.1260632246       -0.4914641973
 H         -3.8173736999        5.2348753137        1.6141597792
 H         -2.1569991903        5.7319579671        3.3769595328
 H         -0.2277905919        4.2666572379        3.7318288261
 H          0.1184925543        2.2593075769        2.3354747775
 H          0.9186459028        1.7575265744       -0.1037713850
 H          1.5732004732        1.1636006877       -2.3911440270
 H          2.9199642636        2.1988871334       -4.1770261884
 H          5.3675110483        2.1452977215       -4.1052569366
 H          6.5539120651        1.0332381268       -2.2425060343
 H          7.2178766792       -0.3330722338        0.0629696842
 H          7.1802756990       -1.6115986784        2.1792295356
 H          5.0579261591       -2.2089715648        3.2452497832
 H          2.9014749141       -1.5709079148        2.2322509955
 H          1.6624543487       -2.4463395411        0.2765569771
  62
       -101.90115874
 O         -0.2774662774       -4.1831839702       -0.7103801534
 C         -0.8926667384       -3.3414252215       -0.0128946854
 C         -1.9955786972       -3.6982812572        0.8231411746
 C         -2.5621006162       -2.9524852583        1.8903203278
 N         -3.5593472073       -3.3768503238        2.6150835591
 C         -4.0712534334       -4.5798128319        2.3696937767
 N         -3.5576310443       -5.3882928835        1.4464563861
 C         -2.5648443547       -5.0032160856        0.7121448661
 C         -0.4522452889       -1.9292386975       -0.0375545559
 C         -1.3364393393       -0.8520147610        0.0561697291
 C         -0.8612882896        0.4478174466       -0.0599200249
 N         -1.7587196079        1.5227942805        0.0178424995
 C         -1.9081508869        2.5165489347       -0.9257998786
 C         -1.2709208373        2.6739310392       -2.1481800867
 C         -1.6221244692        3.7619954266       -2.9246503718
 C         -2.5913947169        4.6689741054       -2.5039404138
 C         -3.2500610913        4.5021349719       -1.2989993505
 C         -2.9132141613        3.4177589771       -0.5029438221
 C         -3.3893734897        2.9295522069        0.7640331697
 C         -4.3443709039        3.3767611608        1.6646985363
 C         -4.5452405507        2.6567932298        2.8286453225
 C         -3.7956152811        1.5166064763        3.1070279334
 C         -2.8369976215        1.0546358588        2.2255632890
 C         -2.6500650587        1.7562164407        1.0431817018
 C          0.4942586463        0.6987086986       -0.2565315833
 C          1.3739398793       -0.3767726948       -0.3667756923
 N          2.7428561952       -0.1489853342       -0.5487018775
 C          3.3136312077        0.6884210479       -1.4836915335
 C          2.7112133322        1.4522711460       -2.4736101095
 C          3.5272068786        2.1985437782       -3.3028893605
 C          4.9122848527        2.1815127272       -3.1634298082
 C          5.5213254200        1.4016611244       -2.1964934352
 C          4.7218358482        0.6461648485       -1.3526604562
 C          5.0029146208       -0.2676389276       -0.2774002815
 C          6.1746350333       -0.7053105267        0.3208249040
 C          6.0856803806       -1.5956516884        1.3758851247
 C          4.8491431326       -2.0348519624        1.8417099404
 C          3.6678807329       -1.6120101565        1.2612729950
 C          3.7518356159       -0.7378670398        0.1857087614
 C          0.9013363659       -1.6768561000       -0.2762197884
 H         -2.1444812378       -1.9970975748        2.1759354960
 H         -4.9101212296       -4.9187584524        2.9517332506
 H         -2.1453809084       -5.6862687080       -0.0148740952
 H         -2.3979555035       -1.0145120016        0.1530696299
 H         -0.5389725082        1.9583917650       -2.4890513005
 H         -1.1388065535        3.9080660055       -3.8789353479
 H         -2.8376433226        5.5083547936       -3.1362080328
 H         -4.0134036210        5.1968313954       -0.9837743253
 H         -4.9147821449        4.2697165535        1.4597984319
 H         -5.2877592028        2.9856570061        3.5395381313
 H         -3.9638950894        0.9824678059        4.0297331769
 H         -2.2441421499        0.1836512349        2.4566444011
 H          0.8583847755        1.7129017437       -0.2964965726
 H          1.6409949024        1.4533081651       -2.6040292484
 H          3.0800287642        2.8030932491       -4.0775015050
 H          5.5171882242        2.7785326302       -3.8286750869
 H          6.5959583769        1.3757747587       -2.1010580671
 H          7.1330853867       -0.3542909466       -0.0295750156
 H          6.9859192886       -1.9511814457        1.8534961834
 H          4.8104458602       -2.7183680819        2.6763629301
 H          2.7136723212       -1.9460305968        1.6379491650
 H          1.5682492652       -2.5134370063       -0.4063857854
  62
       -101.90113307
 O         -2.8454154269       -2.9296202580        1.1127615016
 C         -1.9024611181       -2.8509501361        0.2894842996
 C         -1.5424793129       -3.9358165739       -0.5695213289
 C         -0.7641264593       -3.8856553370       -1.7556549091
 N         -0.5049792938       -4.9300855040       -2.4918829966
 C         -1.0080504592       -6.1098496502       -2.1379446875
 N         -1.8178940256       -6.2453448487       -1.0914575451
 C         -2.1019936884       -5.2294020030       -0.3421624940
 C         -1.1392628811       -1.5883179544        0.1879357236
 C         -1.8070575836       -0.3991428381        0.4930546664
 C         -1.1347280687        0.8128537775        0.4798608754
 N         -1.8393952597        1.9941973825        0.7423337513
 C         -3.0281553279        2.3596031902        0.1453735000
 C         -3.7462512368        1.7202761985       -0.8563331572
 C         -4.9067801512        2.3245043169       -1.3026630192
 C         -5.3426188741        3.5380286108       -0.7768056141
 C         -4.6194793265        4.1904724763        0.2057625691
 C         -3.4522764289        3.6031905536        0.6694858768
 C         -2.4651895906        3.9930571255        1.6411150118
 C         -2.3374292096        5.0831203022        2.4881348601
 C         -1.2461685642        5.1382569889        3.3368592267
 C         -0.3012433142        4.1160375197        3.3573664755
 C         -0.4101655428        3.0192050811        2.5234708190
 C         -1.4882434129        2.9694755118        1.6510492100
 C          0.2279912523        0.8583916241        0.1909542521
 C          0.9040953431       -0.3304809136       -0.0748024701
 N          2.2827057931       -0.3047378869       -0.3284878372
 C          2.9157343066       -0.8942644439       -1.4028970706
 C          2.3708530148       -1.5510216214       -2.4970343716
 C          3.2369574714       -2.0411447367       -3.4557882649
 C          4.6144271570       -1.8722694737       -3.3409840403
 C          5.1623907782       -1.1898700559       -2.2697780902
 C          4.3115673610       -0.6926253367       -1.2940657279
 C          4.5204707521        0.0575759058       -0.0844160751
 C          5.6508823691        0.5405543728        0.5573648141
 C          5.4945636511        1.2218968877        1.7509222222
 C          4.2337185199        1.4056078763        2.3123941523
 C          3.0940901475        0.9304321662        1.6914190655
 C          3.2407917084        0.2720042121        0.4790266525
 C          0.2304608087       -1.5453774291       -0.0827084653
 H         -0.3875252565       -2.9421498963       -2.1250881805
 H         -0.7731493503       -6.9759289914       -2.7314074365
 H         -2.7844119518       -5.3571577591        0.4879418536
 H         -2.8508883356       -0.4445106760        0.7576485203
 H         -3.4078164267        0.7865948029       -1.2781097478
 H         -5.4854686838        1.8452732559       -2.0777623012
 H         -6.2554058585        3.9770648510       -1.1496372350
 H         -4.9518587604        5.1375163227        0.6024279367
 H         -3.0782951019        5.8678159397        2.4864592384
 H         -1.1283162187        5.9793508113        4.0029205893
 H          0.5307197842        4.1772180724        4.0426526869
 H          0.3112045042        2.2189340945        2.5635781720
 H          0.7483296783        1.8018715949        0.1481785732
 H          1.3039713218       -1.6649138106       -2.6048446351
 H          2.8349409421       -2.5636933761       -4.3103459828
 H          5.2604760348       -2.2731631376       -4.1069941848
 H          6.2288677647       -1.0436534177       -2.1926121080
 H          6.6305901710        0.3826197818        0.1332438885
 H          6.3618288410        1.6086875191        2.2638982684
 H          4.1439451151        1.9252144471        3.2544435414
 H          2.1227266486        1.0514786416        2.1440726748
 H          0.7913268246       -2.4537699930       -0.2340171031
  62
       -101.90075375
 O         -2.6468084556       -3.0654631757        1.3398000704
 C         -1.8229331411       -2.9183615822        0.4080598759
 C         -1.5668398179       -3.9150306605       -0.5780757850
 C         -0.9080025528       -3.7413078837       -1.8256525090
 N         -0.7400255499       -4.6990646380       -2.6919775768
 C         -1.2251280981       -5.9091166649       -2.4199343473
 N         -1.9236932110       -6.1534532447       -1.3139856029
 C         -2.1154494559       -5.2272155885       -0.4328227479
 C         -1.0892838807       -1.6324912280        0.2855690611
 C         -1.7716390871       -0.4566721892        0.5945320344
 C         -1.1225096504        0.7675154704        0.5282443663
 N         -1.8400723028        1.9425057657        0.7851341051
 C         -3.0436210378        2.2857630017        0.2043704576
 C         -3.7896799014        1.6081876778       -0.7505253243
 C         -4.9656264299        2.1925802603       -1.1829566770
 C         -5.3889640677        3.4245437915       -0.6908127566
 C         -4.6385179043        4.1146910223        0.2440736324
 C         -3.4569624300        3.5465393487        0.6953284663
 C         -2.4489399617        3.9702435637        1.6304045895
 C         -2.3023337076        5.0882062030        2.4374161334
 C         -1.1977810531        5.1665837331        3.2668075184
 C         -0.2602777652        4.1382603190        3.3119508369
 C         -0.3873951243        3.0152639698        2.5166847966
 C         -1.4740953175        2.9454899737        1.6570244291
 C          0.2274924948        0.8302313379        0.1904270627
 C          0.9254206417       -0.3499594509       -0.0634399113
 N          2.2982950016       -0.3021519540       -0.3369480777
 C          2.9552934925       -0.9783994030       -1.3471347018
 C          2.4439665190       -1.7643982802       -2.3702875547
 C          3.3343354986       -2.3238061422       -3.2675408437
 C          4.7045565845       -2.0996778599       -3.1659984536
 C          5.2191886837       -1.2879089690       -2.1716937722
 C          4.3432042134       -0.7194099876       -1.2594912482
 C          4.5247502405        0.1582223229       -0.1349739608
 C          5.6397659273        0.7434255312        0.4458366441
 C          5.4644932096        1.5368360394        1.5649015341
 C          4.2001296830        1.7266002037        2.1152025079
 C          3.0768700386        1.1495791516        1.5533539522
 C          3.2388984966        0.3830647495        0.4085060892
 C          0.2687444383       -1.5754185398       -0.0284811357
 H         -0.5560853105       -2.7624094011       -2.1219556439
 H         -1.0687437615       -6.7051520631       -3.1260745297
 H         -2.7066341293       -5.4447429004        0.4469438722
 H         -2.8049232910       -0.5135363355        0.8954517379
 H         -3.4627751860        0.6589052097       -1.1460299967
 H         -5.5676466982        1.6819932726       -1.9193151423
 H         -6.3144566352        3.8469140102       -1.0514153127
 H         -4.9613737396        5.0750785744        0.6157083275
 H         -3.0400010624        5.8757287346        2.4215226695
 H         -1.0652021469        6.0294758871        3.9014275475
 H          0.5791328982        4.2150330484        3.9864722478
 H          0.3232400889        2.2071885981        2.5799090849
 H          0.7216314225        1.7845747392        0.1021038850
 H          1.3848836382       -1.9318050596       -2.4756605290
 H          2.9547022125       -2.9463026021       -4.0634633486
 H          5.3699118001       -2.5585758482       -3.8812338387
 H          6.2791020795       -1.0962669807       -2.1040637348
 H          6.6225043667        0.5775066718        0.0319844816
 H          6.3185610481        2.0064720286        2.0284056657
 H          4.0928681712        2.3328540426        3.0020353630
 H          2.1072634654        1.2774742424        2.0053759885
 H          0.8316038488       -2.4821291024       -0.1828683813
  62
       -101.90021344
 O          0.2295448458       -3.9698139484        1.3826907102
 C         -0.6885670643       -3.2413797607        0.9295802861
 C         -2.0509289900       -3.6789975242        0.8898448108
 C         -3.1188860268       -3.1632447696        0.1095001290
 N         -4.3345662115       -3.6346688410        0.1606155116
 C         -4.5972309424       -4.6650079297        0.9585514181
 N         -3.6445714946       -5.2819533352        1.6519828025
 C         -2.4257902605       -4.8460121735        1.6194183698
 C         -0.3454997170       -1.8831922539        0.4686177149
 C         -1.2291762667       -0.8027851016        0.5259438848
 C         -0.7912963828        0.4679289537        0.1787393447
 N         -1.6945408280        1.5399043776        0.1974835258
 C         -1.9194219322        2.4035751440       -0.8536933509
 C         -1.3655316135        2.4064144365       -2.1259513315
 C         -1.7804796843        3.3838351782       -3.0104573505
 C         -2.7347236756        4.3305198585       -2.6469931824
 C         -3.3170424731        4.3111205351       -1.3923834378
 C         -2.9146127550        3.3395856764       -0.4881963143
 C         -3.3116826780        3.0048121552        0.8535916667
 C         -4.2320004435        3.5443688244        1.7392267868
 C         -4.3640895657        2.9664317858        2.9889416952
 C         -3.5813119285        1.8770358600        3.3629013794
 C         -2.6546799150        1.3239883939        2.4988234724
 C         -2.5362309662        1.8837307623        1.2337759651
 C          0.5355429706        0.6987455610       -0.1763851946
 C          1.4253797958       -0.3752771040       -0.2220254557
 N          2.7718122172       -0.1644923125       -0.5332353683
 C          3.2676912128        0.6701539334       -1.5162971041
 C          2.5978623502        1.4315284661       -2.4648924744
 C          3.3502579730        2.1881131248       -3.3439179317
 C          4.7412197000        2.1806527764       -3.3021618582
 C          5.4180375168        1.3925340492       -2.3889343446
 C          4.6818546178        0.6299704015       -1.4956082343
 C          5.0487165676       -0.2845648898       -0.4481369947
 C          6.2695853730       -0.7276001324        0.0369213174
 C          6.2760027243       -1.6186455926        1.0947769789
 C          5.0852014931       -2.0408132772        1.6790543729
 C          3.8565875239       -1.6089894184        1.2141697240
 C          3.8411694917       -0.7475845330        0.1240989835
 C          0.9780060874       -1.6541287727        0.0748349003
 H         -2.9499204768       -2.3727424237       -0.6100913984
 H         -5.6077284042       -5.0290372861        1.0241097894
 H         -1.6597243902       -5.3782382755        2.1683019832
 H         -2.2452743149       -0.9312479683        0.8594452094
 H         -0.6512657105        1.6541018524       -2.4224230940
 H         -1.3611633804        3.4086168314       -4.0050581922
 H         -3.0325437014        5.0805695147       -3.3637170214
 H         -4.0733365695        5.0317630548       -1.1216698442
 H         -4.8299653838        4.3969876739        1.4560486535
 H         -5.0786953896        3.3680129115        3.6910813422
 H         -3.6976874251        1.4561284227        4.3501406963
 H         -2.0388408892        0.4912425292        2.8024508053
 H          0.8763067436        1.7058208555       -0.3524500967
 H          1.5225390180        1.4302497976       -2.5306317012
 H          2.8451220726        2.7961276370       -4.0793237678
 H          5.2951187163        2.7892060556       -4.0005434142
 H          6.4967261690        1.3681937715       -2.3689203173
 H          7.1919352941       -0.3818655737       -0.4040593603
 H          7.2146667994       -1.9842575635        1.4823776517
 H          5.1179546366       -2.7208337297        2.5166472844
 H          2.9474297057       -1.9318217566        1.6943327562
 H          1.6402356668       -2.5005767624        0.0034948143
  62
       -101.89883274
 O          0.0554756650       -3.9880857000        1.4808748259
 C         -0.7656574286       -3.2390077929        0.9002030958
 C         -2.0789475236       -3.6691848144        0.5365971385
 C         -2.9841784119       -3.0533808953       -0.3684589329
 N         -4.1565542004       -3.5456584333       -0.6561992078
 C         -4.5331291793       -4.6928716330       -0.0978247606
 N         -3.7275454996       -5.3845223037        0.7033713094
 C         -2.5544727068       -4.9309260610        1.0067001334
 C         -0.3582655556       -1.8587247229        0.5572885899
 C         -1.2406373245       -0.7753240037        0.5892576583
 C         -0.7806324710        0.4958964562        0.2853930854
 N         -1.6874240386        1.5782359982        0.3041448148
 C         -2.4620153398        1.9726516775       -0.7596852187
 C         -2.5037307575        1.4569498208       -2.0474028741
 C         -3.3741927507        2.0463430744       -2.9444810358
 C         -4.1804415855        3.1195745706       -2.5714814435
 C         -4.1410614605        3.6361260549       -1.2882700160
 C         -3.2767203771        3.0617074014       -0.3683530714
 C         -2.9699000626        3.3177472559        1.0144665476
 C         -3.4280691473        4.2330759952        1.9501000996
 C         -2.9024512163        4.1905874291        3.2294865804
 C         -1.9334033078        3.2538654960        3.5825014754
 C         -1.4588248531        2.3314562204        2.6691740616
 C         -1.9840132240        2.3718686098        1.3853385538
 C          0.5540352386        0.7249945839       -0.0234681948
 C          1.4420629960       -0.3515022253       -0.0273262443
 N          2.7887174935       -0.1454462803       -0.3401470951
 C          3.2639310226        0.5595621647       -1.4272035045
 C          2.5654915071        1.1903495885       -2.4480309763
 C          3.2974813212        1.8142910390       -3.4413731482
 C          4.6895404706        1.8058445269       -3.4313424318
 C          5.3910944262        1.1567119624       -2.4311123813
 C          4.6782688601        0.5244321421       -1.4240161190
 C          5.0641987745       -0.2458178396       -0.2711886555
 C          6.2897884690       -0.6115767765        0.2645061374
 C          6.3053460200       -1.3631981273        1.4258617598
 C          5.1206220283       -1.7350796740        2.0560170678
 C          3.8869333633       -1.3809041097        1.5419260724
 C          3.8656001068       -0.6464794921        0.3638062150
 C          0.9869649580       -1.6283635213        0.2618811680
 H         -2.7102329520       -2.1487361420       -0.8962134082
 H         -5.5110843375       -5.0833569049       -0.3181065622
 H         -1.9032463016       -5.5223885339        1.6371787950
 H         -2.2678320647       -0.9014281660        0.8921596811
 H         -1.8778844911        0.6237374161       -2.3325097893
 H         -3.4311214746        1.6673508394       -3.9537021399
 H         -4.8478150270        3.5533516878       -3.3005628052
 H         -4.7684419102        4.4680043022       -1.0069168993
 H         -4.1793201551        4.9607981387        1.6837520795
 H         -3.2483518025        4.8940625568        3.9715985666
 H         -1.5464028373        3.2474862239        4.5902805015
 H         -0.7100161735        1.6015912802        2.9389586648
 H          0.9005216702        1.7271491262       -0.2198525955
 H          1.4866148966        1.1841434268       -2.4779357018
 H          2.7766090735        2.3141343655       -4.2441092718
 H          5.2258485452        2.3051230818       -4.2238867360
 H          6.4700764680        1.1360529318       -2.4338930030
 H          7.2089980586       -0.3119996414       -0.2151097173
 H          7.2487452447       -1.6616774171        1.8572466168
 H          5.1640133944       -2.3118579573        2.9674187510
 H          2.9752656079       -1.6651694505        2.0433832042
 H          1.6617463065       -2.4685931376        0.2384624202
