116
 energy: -173.188597738273 gnorm: 0.000065892604 xtb: 6.7.1 (edcfbbe)
C            8.06575498056971       -1.13801551217441       -3.02571007495768
C            7.37202377535354        0.19387414451610       -3.34952251352337
C            7.61325039525319        0.51082310110572       -4.82856692640208
C            7.99440009241992        1.32138256056802       -2.51283879415355
C            5.89294555283492        0.07181194669258       -3.00962387580877
C            4.88414561373895        0.18976662468302       -3.96672803962218
C            3.56060386427704        0.02286712967782       -3.62364097498266
C            3.19940580590634       -0.25370245611976       -2.30634394375318
C            4.17555612420580       -0.32558151566027       -1.29603042455757
C            5.50679384819066       -0.17831806744405       -1.70282362373491
B            3.67432851818766       -0.58426685187525        0.14479202023374
C            4.36455405931899       -0.54914603292398        1.52953279714024
C            5.64433180919169       -0.05761274318542        1.81222312056542
C            6.21409928002495       -0.06525292718996        3.07510135221261
C            7.60319633306575        0.52326411137084        3.28049097679503
C            8.60550015709000       -0.20776056273127        2.37536756034953
C            7.56521572155251        2.01550900074638        2.91680625081612
C            8.08943855284414        0.39681026614331        4.72750252737992
C            5.46229376148713       -0.61098391068759        4.11647006752388
C            4.18615810291863       -1.08092455337200        3.89694383002048
C            3.62381436821924       -1.03392490978148        2.62274880739914
O            2.33134375841306       -1.47548231868708        2.55280732914068
C            1.60377650539771       -1.35369825690852        1.41917531790862
C            0.24746577650034       -1.64268042924585        1.50047388706373
C           -0.54550663276067       -1.49018948550088        0.36988236920995
N           -1.92777535290062       -1.72084093875619        0.45636549668339
C           -2.49914717898284       -2.93402634003353        0.76521328017389
C           -1.87583017214933       -4.12931335927758        1.09446667467689
C           -2.67728547872369       -5.22115030286876        1.36503274527499
C           -4.06605181653221       -5.12664679364630        1.30752336024528
C           -4.68904149734677       -3.94354593950785        0.96145520805558
C           -3.90608221711513       -2.83074939315471        0.67341841602325
C           -4.19176097978594       -1.47387812709607        0.28542314052524
C           -5.39516373360062       -0.80013936365269        0.06778352748893
C           -6.69602365979154       -1.48888817654639        0.18686809526845
C           -7.55545859220354       -1.19002651978760        1.23820225203333
C           -8.77624522510092       -1.83049110086506        1.34705143315106
C           -9.15348901632175       -2.77420688100772        0.40668651287720
C           -8.29982469132607       -3.08296327210656       -0.63929095738855
C           -7.07643605626329       -2.44729590171920       -0.74724715050310
C           -5.28690535609909        0.55560337290551       -0.22913973452889
C           -4.03595390634976        1.23220252702916       -0.25854140454670
C           -2.83115108580958        0.55485207849455       -0.06049118404919
C           -1.53526397563816        1.26346351927481       -0.08366877638604
C           -0.79689496095621        1.41973489648126        1.08445223337033
C            0.43138999489656        2.05477292852248        1.05557539806693
C            0.93418076661112        2.54472497626857       -0.13806345261164
C            0.19572373527482        2.41125173178937       -1.30224486730685
C           -1.03313215095458        1.77775432085677       -1.27530382900806
C           -2.93760960461820       -0.81095278235266        0.18542170372882
C           -4.33006272154686        2.62432476109947       -0.47198240326952
C           -3.55671538822674        3.77742151829137       -0.55597713074902
C           -4.18474301419464        4.98657951152928       -0.78037365986121
C           -5.56786412255242        5.06381175104733       -0.93092107942188
C           -6.36056151262684        3.93671800686115       -0.84020999584443
C           -5.73541747621387        2.72234718374562       -0.59195690062286
N           -6.29857732454640        1.47405782873304       -0.45287061002001
C           -7.67241292601211        1.21616860059203       -0.62394672218028
C           -8.59859571862420        1.81512585999327        0.22238826676877
C           -9.94998505956057        1.58568899424924        0.03836091063117
C          -10.38319695620499        0.76013485862968       -0.98546574208498
C           -9.46104361054681        0.17102098970967       -1.83454281210345
C           -8.10926557108183        0.40217703090500       -1.66288688701158
C            0.00983004279966       -1.11284137757248       -0.84615182992150
C            1.36785646139624       -0.83224777944444       -0.91368974318561
C            2.19178544134017       -0.93442433311290        0.21692618374982
O            1.86015676935725       -0.44595891903301       -2.11082132199244
H            7.62808771792800       -1.94258035013069       -3.61359892967397
H            7.96457380053017       -1.39327879971515       -1.97449945771960
H            9.12592384082816       -1.07524506170355       -3.26230152407464
H            8.68308557949083        0.59170652547612       -5.01109260800321
H            7.15303867571425        1.45627353836534       -5.10704044663467
H            7.22431285912612       -0.27857300763811       -5.46774494393966
H            9.04319018739856        1.44573070480360       -2.77409656025799
H            7.93411390569325        1.10573247446910       -1.45037446686359
H            7.47761267141227        2.26045103282478       -2.70126838616570
H            5.12056158036368        0.39869000747557       -4.99693349534485
H            2.78132288358936        0.08802979375310       -4.36844807540317
H            6.26524653799187       -0.29042555457612       -0.94585254267961
H            6.19657799117946        0.37021503726413        0.99195419016938
H            9.60832497015951        0.18216606238080        2.53666411157763
H            8.35798153964461       -0.08029710345679        1.32588908014391
H            8.60883333943540       -1.27278492838960        2.59910886906284
H            6.85141736240479        2.53866819586121        3.55037447643396
H            8.54693668528500        2.46159589526750        3.06186513278770
H            7.27154931127256        2.16452044257426        1.88144942329360
H            7.43413652690442        0.93297598565831        5.41026005171654
H            9.08525775052573        0.82745858549803        4.81298291108547
H            8.14761516432805       -0.64585555074791        5.03184255354889
H            5.85755482339996       -0.66058949487001        5.11753885732848
H            3.59363916771652       -1.47807355009372        4.70781155957563
H           -0.18519041433281       -1.94163255800649        2.44221743043163
H           -0.79923037744690       -4.19980243779736        1.13738108948959
H           -2.21952327245078       -6.16390306025994        1.62771180719487
H           -4.66469657219282       -5.99662400115819        1.53489915640321
H           -5.76497171156948       -3.88510857100629        0.91838535011396
H           -7.25795506371745       -0.45762827234539        1.97529270781376
H           -9.43577431994901       -1.59175827091627        2.16880102638843
H          -10.10924700088664       -3.27052199256717        0.49081071325731
H           -8.58724582917905       -3.82251326250609       -1.37293083211303
H           -6.40631235128390       -2.68946127193996       -1.56016678237958
H           -1.19161425651260        1.04117379150692        2.01660124949858
H            0.99994374253548        2.16622324260782        1.96787559630473
H            1.89814234327660        3.03214751156922       -0.16028543371765
H            0.58059622829922        2.79845842785926       -2.23474648486082
H           -1.61020678079842        1.67062139591497       -2.18296161247089
H           -2.48490403578955        3.72985641582578       -0.44536857278056
H           -3.59467617729911        5.88927340374637       -0.84462321766311
H           -6.02832889477691        6.02287411877345       -1.11935541997246
H           -7.43214092385233        3.99625515699498       -0.95896390850758
H           -8.25197259184754        2.45013319841024        1.02477253186136
H          -10.66627866247858        2.04961190131387        0.70051784904004
H          -11.43849150940560        0.57855251535861       -1.12387692135419
H           -9.79588243182288       -0.46544054497559       -2.64002292769809
H           -7.38580927079077       -0.04198108245196       -2.32995717837743
H           -0.60396496324521       -1.02323663165442       -1.72781166285918
