116
 energy: -173.102459411054 gnorm: 0.000039648756 xtb: 6.7.1 (edcfbbe)
C            9.30585422115048       -2.17794885936126       -2.71606153978109
C            8.86017169643815       -2.33136895141624       -1.25406388418804
C            9.49355439744180       -1.19840539771674       -0.44103249615077
C            9.37338513080496       -3.66543791435745       -0.69160201211921
C            7.33881594573816       -2.31879332207088       -1.19678996778863
C            6.62192072253528       -3.30629890362431       -1.87687330743236
C            5.24561767244208       -3.34353594916998       -1.82521588986572
C            4.54227885225210       -2.38240131069466       -1.10418054866568
C            5.21308957755195       -1.34175689525146       -0.43685665758658
C            6.61555013961079       -1.36770221189062       -0.49960026722222
B            4.34152183008815       -0.30321393551354        0.31060411290483
C            4.65961059006439        1.03045817041754        1.02992088545369
C            5.88693274639901        1.71231151782890        1.02563415443414
C            6.11566136275903        2.89247073267427        1.71053944575626
C            7.45530240664761        3.61592313999032        1.69993797888277
C            8.50063296405149        2.91660173085752        0.82587680100380
C            7.25550075388862        5.03883933592877        1.15696451036376
C            7.99791450774396        3.67948754293136        3.13551496304450
C            5.05641725020486        3.42848028690697        2.44671185442936
C            3.82242082855736        2.81579813696821        2.45955761914313
C            3.61436975697942        1.63624442890494        1.74983109077886
O            2.33203773524183        1.15490291998341        1.82148264719348
C            1.93911428477701        0.08361955484790        1.09194306841778
C            0.59021368325806       -0.23482856752565        1.12145485840480
C            0.12900998445567       -1.30582930382571        0.36122951366722
N           -1.24369130191670       -1.60148377115786        0.34378170146543
C           -1.77533150928830       -2.79492423751360        0.77720367657275
C           -1.11696412357070       -3.92867377844217        1.22371719659733
C           -1.88781445654533       -5.02104156056946        1.58707010008293
C           -3.28009981779486       -4.97139326722697        1.49646016288427
C           -3.94396480520695       -3.83391484882370        1.07992960154525
C           -3.19629507039203       -2.70630206647781        0.73198073568552
C           -3.50544571349791       -1.38962410259740        0.27648041242367
C           -4.73571598175376       -0.71829686685312        0.07658912799383
C           -6.01717748351783       -1.35577304708596        0.37812409417378
C           -6.30904072569438       -1.79644861578724        1.67022282375787
C           -7.52555071320582       -2.38714063453765        1.95141811712790
C           -8.46494442701757       -2.56451174875848        0.94763115728087
C           -8.17725442462952       -2.14712957760358       -0.34290138318795
C           -6.96841965478010       -1.54376083096371       -0.62617308384685
C           -4.63093031722268        0.57997633336014       -0.45485289572078
C           -3.39700869390060        1.16513160046556       -0.85118199580500
C           -2.16581867809994        0.51200014985560       -0.61296994109093
C           -0.88874867817437        1.12296223885354       -0.99141426806105
C           -0.48277867909520        2.32819655226777       -0.41766418979412
C            0.73612076838180        2.88758753833580       -0.74961498042956
C            1.56280721070567        2.26318599489710       -1.66949433956385
C            1.15597411785315        1.07906868250428       -2.26516908762856
C           -0.05797075420523        0.51223164221359       -1.93090927486994
C           -2.26455137725484       -0.75236529843487       -0.00651673898678
C           -3.71211300840851        2.41619644768255       -1.46380454671513
C           -2.97457207732318        3.41139857909356       -2.10815658431407
C           -3.63581445860868        4.52886164139016       -2.58097705179587
C           -5.01198742011182        4.69120600437823       -2.42109704902845
C           -5.77376985156310        3.71152916615076       -1.80336660483689
C           -5.12146866884467        2.57539268481160       -1.35512153813852
N           -5.64620343616554        1.46174085594895       -0.73233719992487
C           -6.98936637051141        1.37789605080762       -0.32123192947051
C           -7.29357211770768        1.26115347517361        1.03146190672547
C           -8.61355935521040        1.21301752401125        1.43590040991369
C           -9.63373899676227        1.29007077748582        0.50118320408881
C           -9.33053237255396        1.41887655440586       -0.84387083086930
C           -8.01222971781465        1.46594382252754       -1.25931249052534
C            1.01364070720796       -2.09172817616995       -0.37158907215447
C            2.36389069855822       -1.77079407493249       -0.36859192132089
C            2.86088060704494       -0.67016099599242        0.34698942850632
O            3.18149830370855       -2.55728477395287       -1.11033249585499
H           10.39222271694188       -2.16388803422605       -2.77729185712414
H            8.92383596934010       -1.24642027012052       -3.12943471730559
H            8.94093089364165       -2.99714883326256       -3.32967322827607
H           10.57766582322202       -1.26475105152344       -0.51092806742776
H            9.21934486591579       -1.27138031325775        0.60899140066196
H            9.19183714359118       -0.22680218414361       -0.82449477727941
H           10.46126392650080       -3.68581984491537       -0.70999134355550
H            9.00807313514903       -4.50843007944955       -1.27171383602926
H            9.04249410556310       -3.79114755696711        0.33768245750230
H            7.13648335117678       -4.06597448252728       -2.44509375200193
H            4.68987340815568       -4.11861783637958       -2.33264091041213
H            7.13836281242718       -0.60445294051215        0.04810663116260
H            6.67749754277884        1.28292832777306        0.43683853882120
H            9.42974924700092        3.48298657420680        0.84960054440154
H            8.16895548098948        2.85807205438142       -0.20836848519645
H            8.70961999101913        1.91491419845781        1.19330113783688
H            6.57246010341071        5.60989488515015        1.77975800982981
H            8.20761292852346        5.56491947646254        1.12597196381345
H            6.84770032339121        5.00232558442005        0.14848246494975
H            7.32241804938723        4.22295786431286        3.79062469946053
H            8.96370953051072        4.18073022363758        3.14969799577786
H            8.12371372688605        2.67468926524747        3.53440502268363
H            5.18447520414362        4.34049063324465        3.00950287306072
H            2.99536165331320        3.23955683479871        3.01035006120783
H           -0.09021025133471        0.35599923064654        1.71338596505617
H           -0.03964442935062       -3.95899275825460        1.28188303882598
H           -1.40655161052462       -5.92227442022136        1.93502398962287
H           -3.85303113777794       -5.84723013036399        1.76516482895073
H           -5.01985494929091       -3.82190438111844        1.01898816645114
H           -5.57817828498173       -1.65461572010167        2.45336004369396
H           -7.74256665410224       -2.71202121657288        2.95900364785504
H           -9.41421918054222       -3.02979050999816        1.16820396165306
H           -8.89931765203375       -2.29652690284885       -1.13252091501876
H           -6.73960997082361       -1.23520469939597       -1.63621707297689
H           -1.12304049114800        2.81005533459894        0.30735671476190
H            1.04590300406336        3.81313185290085       -0.28600535529488
H            2.51925547928664        2.69667482023779       -1.92215093277793
H            1.79120996207280        0.59565633764786       -2.99353941495292
H           -0.37698118899643       -0.40515289523568       -2.40456972606040
H           -1.90963016447925        3.30957554326155       -2.23903381418904
H           -3.07135855338124        5.30187051038887       -3.08242588733219
H           -5.49020272621134        5.58663056958613       -2.78765841603821
H           -6.83880353870298        3.83246340073671       -1.67780820539097
H           -6.49305010839414        1.21514765384913        1.75429737716836
H           -8.84636262061897        1.12186592323452        2.48602487925111
H          -10.66374023242565        1.25178211372377        0.82172436926679
H          -10.12285428408057        1.47988112216036       -1.57488054333416
H           -7.76815685569781        1.55079928441941       -2.30788029420920
H            0.65826076074867       -2.92037837651875       -0.96378049924260
