  74
       -114.52406033
 C          9.4764779966       -1.0749937901        1.3998547230
 C          9.2390665145        0.4305770462        1.2692272815
 C          9.0221838935        1.0674634451        2.6441698236
 C          8.0607622672        0.7173863982        0.3726120674
 C          8.2100518637        1.5197155643       -0.7616568986
 C          7.1437741170        1.8081993513       -1.5841606189
 C          5.8843343479        1.2912108162       -1.2860745557
 O          4.8539610006        1.6025894132       -2.1136744531
 C          3.6476679852        1.1064087812       -1.8311351535
 C          3.3363375181        0.3073141375       -0.7863222488
 C          1.9597739199       -0.1759613324       -0.6070886006
 C          1.3940867722       -0.2500362642        0.6637271683
 C          0.0942605741       -0.6884672376        0.8278793562
 C         -0.6627514461       -1.0578952365       -0.2761692599
 N         -2.0090209225       -1.4870216508       -0.1123139222
 C         -2.2807437205       -2.8446963247       -0.0943633359
 C         -1.2286992013       -3.7601815812       -0.1951083838
 C         -1.4696089001       -5.1175736185       -0.1913279152
 C         -2.7664348391       -5.5873235110       -0.0815497806
 C         -3.8058891346       -4.6833628023        0.0343252941
 C         -3.5919415270       -3.3117342733        0.0331974477
 C         -4.7706654998       -2.3700442253        0.1796787525
 C         -5.4591904575       -2.6569363166        1.5264195837
 C         -5.7490451110       -2.6214955719       -0.9823070288
 C         -4.3483512364       -0.9117105659        0.1502672846
 C         -5.3225278013        0.0638769753        0.2652408415
 C         -4.9806953292        1.4074714368        0.2299284189
 C         -3.6311065836        1.7658830562        0.0709985678
 C         -2.6388053377        0.8192301681       -0.0464752013
 C         -2.9996273393       -0.5315492567        0.0013216712
 O         -3.4653750258        3.1177907085        0.0490183252
 C         -4.7125703209        3.6522118530        0.1944259870
 C         -5.0298140508        4.9963885285        0.2291374087
 C         -6.3650469177        5.3308511553        0.3826824659
 C         -7.3485182396        4.3534094123        0.4978517154
 C         -7.0301181119        3.0090515770        0.4645073497
 C         -5.6980524636        2.6496789004        0.3114475087
 C         -0.1016772046       -1.0019868051       -1.5464724783
 C          1.1991618372       -0.5690104736       -1.7079053955
 C          4.3862186609       -0.0774251526        0.1705753900
 O          4.2032579573       -0.7960957611        1.1398157390
 C          5.7081626109        0.4816398989       -0.1597871611
 C          6.8079020739        0.2099677875        0.6555052854
 H          8.6335652754       -1.5590609236        1.8856544932
 H          9.6125505550       -1.5247372558        0.4188009083
 H         10.3681068504       -1.2624450238        1.9934624178
 H         10.1306506717        0.8807891398        0.8189675248
 H          8.8697365767        2.1401665094        2.5461936259
 H          9.8891951630        0.8972560349        3.2779990512
 H          8.1494012986        0.6398319026        3.1308611130
 H          9.1829182778        1.9247664922       -0.9999988600
 H          7.2595644461        2.4294869007       -2.4582332838
 H          2.9083001497        1.4423992575       -2.5464971752
 H          1.9761833297        0.0356075054        1.5241154354
 H         -0.3460041532       -0.7405522558        1.8123504978
 H         -0.2152457733       -3.3991524091       -0.2722699459
 H         -0.6428992600       -5.8073960998       -0.2716578361
 H         -2.9673870380       -6.6476924807       -0.0798673969
 H         -4.8115391238       -5.0636249263        0.1291941217
 H         -6.3236951186       -2.0142477724        1.6655380185
 H         -4.7622925056       -2.4768373274        2.3426354093
 H         -5.7897786537       -3.6902773163        1.5800223650
 H         -5.2566491060       -2.4141981633       -1.9304005970
 H         -6.6216688504       -1.9800012612       -0.9018239802
 H         -6.0852314438       -3.6542794417       -0.9891695913
 H         -6.3598376339       -0.2058249616        0.3821529305
 H         -1.6130350960        1.1209279996       -0.1728460980
 H         -4.2623355067        5.7485641034        0.1401629053
 H         -6.6469760543        6.3724081538        0.4145431048
 H         -8.3790626300        4.6537436369        0.6157494082
 H         -7.7958302636        2.2534555746        0.5541114059
 H         -0.6906002249       -1.3044107417       -2.3997747088
 H          1.6357533504       -0.5482901007       -2.6953622204
 H          6.6320686115       -0.4137021972        1.5182008482
