73
 energy: -103.149667602156 gnorm: 0.000069575338 xtb: 6.7.1 (edcfbbe)
C            3.52026293114376        3.31918508140318       -1.20335938488139
C            2.29485012697602        2.55020890300784       -0.81794635830791
C            1.39398194203764        2.10784580541966       -1.77570704174743
C            0.27386093570231        1.36981621029108       -1.43452480568351
C           -0.67845125936796        0.96356386644057       -2.52117336028905
C            0.03664383393721        1.01750680183913       -0.09234204694324
B           -1.10022952906567       -0.00100585810625        0.25587159426699
C           -0.77009934177687       -1.26152113015464        1.14902012005330
C           -1.79632862227573       -1.76442445056851        1.96328420871459
C           -1.60542276895669       -2.79478130608480        2.85840143001135
C           -0.34569995685427       -3.38693690686134        2.95875354976255
C           -0.12479130111332       -4.44826816452299        3.86534467517459
N            0.05232612985504       -5.30677395419550        4.60431141947718
C            0.69587168800375       -2.92685679015598        2.15806355369740
C            0.49358153138089       -1.87581479925994        1.27213829163700
N            1.61473700132223       -1.43651001190735        0.54589902769187
C            2.76210060892911       -0.93209377471834        1.12737221446337
C            3.08858431790074       -0.79852943392622        2.46878111068171
C            4.30610435083559       -0.22512025795130        2.78330825850996
C            5.18327856001768        0.20842964246214        1.79205370957276
C            4.86624663305346        0.07183923842438        0.45545066733827
C            3.64993007720126       -0.50382224495888        0.11527171327870
C            3.01629542152013       -0.80539019480225       -1.13588721425779
C            3.40389474627640       -0.66419519906274       -2.46071658663095
C            2.56190633789475       -1.13118885143105       -3.44986049474701
C            1.35832269940924       -1.75331415058668       -3.12933465574164
C            0.94721995885424       -1.89455294739696       -1.81775461713584
C            1.76829462034417       -1.38960246376983       -0.82283342172897
C           -2.59165457202227        0.22723879699739       -0.18152420469707
C           -3.22860814328037        1.44389651842564        0.13720091269018
C           -2.50477392798439        2.51895764505717        0.89411324760707
C           -4.55296272611734        1.65890918464857       -0.20200303837170
C           -5.29850119479766        0.70211619757299       -0.87683551046572
C           -6.72157000510066        0.96861713114788       -1.25951221428137
C           -4.67779447211759       -0.49288516106301       -1.19454248984518
C           -3.35509309859228       -0.74212244824768       -0.85341688336754
C           -2.77508178849313       -2.05693005124877       -1.28913090095263
C            0.90041114757746        1.54463516524626        0.88158483467435
C            0.61036124516798        1.41239662335711        2.34931006539777
C            2.00880687352009        2.29068004449265        0.51189148613809
H            3.83362098131072        3.06416086223210       -2.21298584232406
H            4.33452087871279        3.10871155407094       -0.51341000156628
H            3.31883355164165        4.39076652002909       -1.17145432070012
H            1.57708208291984        2.33542926447015       -2.81673093124120
H           -0.25457032991405        1.18065639135799       -3.49886508733783
H           -1.61415821281504        1.51313202517404       -2.42026363801710
H           -0.90643500341066       -0.09613587502159       -2.47132961145711
H           -2.77403656383972       -1.31036665999873        1.88942688604242
H           -2.41642670935153       -3.14853219150335        3.47730540101270
H            1.67108315132415       -3.38795849235352        2.22425788429371
H            2.41669130496926       -1.13002883592111        3.24700382691650
H            4.58328148792218       -0.11111270692314        3.82121536754844
H            6.12460092675892        0.65333050962694        2.07925303959428
H            5.54686612292604        0.40366367288219       -0.31404328876122
H            4.35108522139644       -0.20850380989274       -2.70679261308379
H            2.84476165909945       -1.03296789857750       -4.48751737910699
H            0.73497775964682       -2.13810378506869       -3.92347879029900
H            0.02396980601948       -2.39600531479253       -1.57484949292804
H           -3.15141679529264        3.38011929531970        1.04684268387820
H           -2.18632117747938        2.15090561431009        1.86751190386020
H           -1.61811099211238        2.84076333857716        0.35267877043168
H           -5.02114740221414        2.59658048290265        0.06499260467426
H           -7.24092453079292        1.50414772172029       -0.46720711559431
H           -6.75603080431314        1.58610567037879       -2.15788190085811
H           -7.25028258639388        0.04084412481420       -1.46501430560724
H           -5.23593129592057       -1.25617054437884       -1.71953568191912
H           -2.37135021250807       -1.96898548774202       -2.29920881685679
H           -1.97855470209980       -2.38223135287731       -0.62716126163299
H           -3.54672928755286       -2.82420751945122       -1.30923002940330
H            0.16073301613542        2.33925903135068        2.70963537198189
H           -0.08099577788734        0.60075208441155        2.55792544058865
H            1.53001174516377        1.25465732541484        2.90863482560658
H            2.67049567701133        2.66411968022782        1.28125924150527
