  73
       -103.14965988
 C          2.9191670346        4.0071065040        1.3405642290
 C          1.7924503323        3.0407289668        1.1455656293
 C          0.8042653909        3.2652017911        0.1988449876
 C         -0.2225961007        2.3602650245       -0.0094819308
 C         -1.2802124266        2.6942275157       -1.0206712893
 C         -0.2694885783        1.1578483845        0.7210957715
 B         -1.2950419189        0.0443020202        0.3228890457
 C         -0.7913247783       -1.4334354347        0.0820233383
 C         -1.6857908765       -2.4757893407        0.3694446022
 C         -1.3348393478       -3.8063440064        0.2940780731
 C         -0.0415255574       -4.1494612501       -0.1025592452
 C          0.3418571820       -5.5066935006       -0.1922457004
 N          0.6491796403       -6.6090222068       -0.2613396366
 C          0.8720130052       -3.1454949400       -0.4107884779
 C          0.5101265743       -1.8075338171       -0.3125155027
 N          1.5134684136       -0.8601316575       -0.5822591851
 C          2.6937617164       -0.7624966983        0.1294292253
 C          3.1676733358       -1.5493099085        1.1688263777
 C          4.3828726279       -1.2107856443        1.7333830285
 C          5.1152697135       -0.1161407374        1.2802406788
 C          4.6512291523        0.6666170148        0.2421469265
 C          3.4338584067        0.3448161615       -0.3419013022
 C          2.6738420560        0.9141227774       -1.4171300744
 C          2.8954887392        1.9720451385       -2.2872430406
 C          1.9680610256        2.2179203227       -3.2795894574
 C          0.8436314447        1.4096130794       -3.4235605211
 C          0.5971736455        0.3580816677       -2.5617914056
 C          1.5027001512        0.1327832756       -1.5379650972
 C         -2.8388160159        0.3219713631        0.2342555566
 C         -3.5023254719        0.8972199565        1.3373573887
 C         -2.7555153327        1.2388927929        2.5936687879
 C         -4.8671825537        1.1211695339        1.3029854468
 C         -5.6309919046        0.8066342813        0.1868857860
 C         -7.1028779871        1.0819192765        0.1678395147
 C         -4.9850384135        0.2431993854       -0.8986288939
 C         -3.6190221821       -0.0074575064       -0.8862429408
 C         -3.0197301258       -0.5820552522       -2.1375291549
 C          0.6792745800        0.9790649490        1.7416783867
 C          0.5816871805       -0.1555256596        2.7209909905
 C          1.6899264567        1.9073706235        1.9355063797
 H          3.0312913893        4.6517335731        0.4722110001
 H          3.8513483237        3.4716669028        1.5095121095
 H          2.7312686611        4.6360855580        2.2115067286
 H          0.8412668052        4.1651309525       -0.3993330849
 H         -1.0050695912        3.5872447183       -1.5772360435
 H         -2.2304001712        2.8779769659       -0.5193248447
 H         -1.4254730393        1.8803605634       -1.7239697395
 H         -2.6890136331       -2.2162959348        0.6755753523
 H         -2.0467936317       -4.5817940358        0.5343070152
 H          1.8719234198       -3.4052592350       -0.7281522936
 H          2.6090264630       -2.4003825271        1.5301345198
 H          4.7730553127       -1.8089643257        2.5439181823
 H          6.0600460568        0.1163444246        1.7490864397
 H          5.2202233225        1.5124350161       -0.1135210729
 H          3.7825189081        2.5799658775       -2.1928450161
 H          2.1217333024        3.0351023779       -3.9687484899
 H          0.1517943226        1.6063221511       -4.2297734697
 H         -0.2644662769       -0.2772683266       -2.6907152168
 H         -3.4288624257        1.6634201517        3.3349254718
 H         -2.2943137517        0.3487802640        3.0170996840
 H         -1.9657942464        1.9580625651        2.3881898217
 H         -5.3542767697        1.5530358416        2.1666719499
 H         -7.5775062785        0.6077744998       -0.6877370167
 H         -7.5733429118        0.7164302542        1.0791186664
 H         -7.2821227814        2.1557228995        0.1091085340
 H         -5.5560337539       -0.0127877518       -1.7807664870
 H         -2.7338870893        0.2226995930       -2.8168856958
 H         -2.1393376847       -1.1795431787       -1.9217022243
 H         -3.7462023406       -1.2061632940       -2.6544250738
 H          0.1303934513        0.2087855812        3.6455047270
 H         -0.0330693512       -0.9686072305        2.3452855796
 H          1.5709646051       -0.5358670758        2.9663168837
 H          2.4221748579        1.7325591211        2.7117190722
