52
 energy: -89.929827910000 gnorm: 0.000028904128 xtb: 6.7.1 (edcfbbe)
N            5.94621397174848       -1.83376370726302        0.84330229636040
C            4.96938572273494       -1.28834716755097        0.59757342320715
C            3.75030467832027       -0.63763576358221        0.29636935251013
C            2.54239515207774       -1.25622834820202        0.59712629196822
C            1.33264728142703       -0.63356736397561        0.31486414752015
N            0.13570187591377       -1.26124133489941        0.65714362961155
C           -0.27473981252062       -2.51678204292462        0.22058519110034
C            0.43053045774615       -3.47658388179365       -0.48817374708217
C           -0.23525961758306       -4.63805616781192       -0.83546484711343
C           -1.57108810335143       -4.84144746720909       -0.49831371231206
C           -2.28403382925946       -3.88040027429558        0.19034852698301
C           -1.63322857699620       -2.70889763947733        0.55172576838634
C           -2.06255179176157       -1.51612110762312        1.22831185926548
N           -3.24506383370459       -1.20581219121333        1.73348927914987
C           -3.34295805627984       -0.02959071795457        2.32313153325214
C           -2.27921240173346        0.85620828505561        2.48748539987634
C           -1.03228798418797        0.54152756973310        1.97355622493379
C           -0.93860684168562       -0.65441179505873        1.28157288934275
C            1.33248345669854        0.63403945327938       -0.31349785384643
N            0.13533053512413        1.26121488475195       -0.65594853278915
C           -0.27576343461729        2.51675784347367       -0.22000032446162
C            0.42904813367460        3.47744237131503        0.48801286127972
C           -0.23726366309748        4.63891942232197        0.83431545393650
C           -1.57318015096442        4.84144658657444        0.49700046359856
C           -2.28571658368691        3.87946952925688       -0.19078904832245
C           -1.63437244802155        2.70797745505627       -0.55121351247828
C           -2.06310931331874        1.51461477084173       -1.22714169527607
N           -3.24551558949479        1.20332279311737       -1.73196613703001
C           -3.34273580497957        0.02681720710633       -2.32116162350491
C           -2.27835810116635       -0.85819699401979       -2.48564869920183
C           -1.03154981093969       -0.54247206676092       -1.97208039462384
C           -0.93864145536321        0.65359286792467       -1.28021100075812
C            2.54210751002818        1.25691453605311       -0.59585328488743
C            3.75014649180792        0.63843551563135       -0.29538386716744
C            4.96909686442373        1.28906931542667       -0.59728272152746
N            5.94582835677258        1.83435608540793       -0.84365993305847
H            2.54290829222913       -2.21767680837326        1.08881994223924
H            1.46151764916401       -3.32841956656230       -0.77402699332690
H            0.29511784696504       -5.40193361821404       -1.38406777218743
H           -2.05229167421527       -5.76296619318165       -0.78848662564054
H           -3.32249453097654       -4.01579304596558        0.44594804994171
H           -4.32284983846535        0.21402932022693        2.70921516240550
H           -2.42551061681385        1.78230296296403        3.02023554717264
H           -0.18499303644752        1.19663142115627        2.11714836644085
H            1.46011226410021        3.33001638912776        0.77396203671653
H            0.29278824752197        5.40351992246195        1.38222921197808
H           -2.05476863728261        5.76303803187725        0.78630992649255
H           -3.32423053364312        4.01418210469305       -0.44653586270307
H           -4.32257498292557       -0.21767621012960       -2.70682427774242
H           -2.42406141893234       -1.78448976271600       -3.01822001891726
H           -0.18376248701587       -1.19689215349767       -2.11586610247681
H            2.54243595869437        2.21834693236319       -1.08757026264986
