52
 energy: -89.844072780160 gnorm: 0.000059514582 xtb: 6.7.1 (edcfbbe)
N            5.96834022111067        1.83062789148542        0.91400163088058
C            4.98961316790481        1.27778075925891        0.64958802212824
C            3.79335924959720        0.65263473977667        0.31598668937278
C            2.57600268501786        1.26352155129052        0.60435482458537
C            1.37281571886539        0.64392562998677        0.33678955951705
N            0.16798698767457        1.22404714471589        0.72750914420062
C           -0.89638264201919        0.54820015274398        1.30518857722021
C           -0.90076842238013       -0.67381291429477        1.96117127532167
C           -2.10965627226288       -1.14092267172665        2.44387410306318
C           -3.28194800687806       -0.39967158259196        2.30512431409879
C           -3.27192403569097        0.85026610617333        1.71642674274707
C           -2.06852059045657        1.33588336989939        1.22187889420557
C           -1.67725021108223        2.56608359355310        0.60385820156145
N           -2.38420061693923        3.63770620719330        0.29589828143127
C           -1.76862774628256        4.63245878918087       -0.30781320059935
C           -0.42074017890274        4.60257793094459       -0.66547579425561
C            0.35633774871750        3.50420197808585       -0.32857085392895
C           -0.27863292397111        2.46532811265508        0.33092117217827
C            1.37041012573249       -0.65163337434117       -0.33325742683956
N            0.16351544137369       -1.22603582603578       -0.72602416914504
C           -0.89631982993850       -0.54477758566298       -1.30566932825514
C           -0.89314719236101        0.67725674057416       -1.96160796010058
C           -2.09868564554568        1.15060426440811       -2.44658340228425
C           -3.27501048758005        0.41535205994192       -2.31010120127329
C           -3.27249563130588       -0.83472899243732       -1.72161293026699
C           -2.07254097383650       -1.32658284636871       -1.22485137053042
C           -1.68852901530013       -2.55899891633358       -0.60668001826270
N           -2.40127155223733       -3.62742492926130       -0.30105165507503
C           -1.79166767862299       -4.62575429820737        0.30278978938965
C           -0.44435778893848       -4.60275861128986        0.66309129843561
C            0.33868901229075       -3.50783378204144        0.32878862762071
C           -0.28996302027347       -2.46529727351983       -0.33097077214773
C            2.57126062501368       -1.27628645313367       -0.59963705760415
C            3.79087320291309       -0.67033616942721       -0.31043206717105
C            4.98487182281933       -1.29999211890792       -0.64367662518967
N            5.96172837064864       -1.85629296693168       -0.90776845435956
H            2.58154705534972        2.21712735699159        1.11326662495249
H            0.01044453630728       -1.23571912566543        2.10387349177034
H           -2.14240616064916       -2.09706171567927        2.94358976875936
H           -4.20734709118185       -0.80693061073862        2.68176004243692
H           -4.16692689357274        1.44576441903472        1.63637153064939
H           -2.37647108843930        5.50148788227004       -0.51676138560597
H            0.01811864032299        5.44360982937312       -1.17738255470348
H            1.40889386437269        3.47511140090014       -0.56867500215972
H            0.02124646149825        1.23441652725123       -2.10255831160440
H           -2.12555941772931        2.10692647809125       -2.94629658282909
H           -4.19759658983002        0.82741019971831       -2.68840953548656
H           -4.17068479895878       -1.42566097684245       -1.64342283925062
H           -2.40409359203843       -5.49208538854656        0.50958674519589
H           -0.01056814388122       -5.44650039495580        1.17486303065083
H            1.39093136074726       -3.48410332305793        0.57084178289465
H            2.57328607830578       -2.22992222916924       -1.10852167753666
