52
 energy: -89.841841211894 gnorm: 0.000054911430 xtb: 6.7.1 (edcfbbe)
N            5.95486714168086       -1.87468706548482        0.83836339875407
C            4.97445408358971       -1.31300320701932        0.59653304612430
C            3.78122095833998       -0.67804588906532        0.27971182586504
C            2.56169033232670       -1.30687931332843        0.52268201983194
C            1.36162008398295       -0.67154202928439        0.28806276446654
N            0.15127147408410       -1.26778734107633        0.63838033677174
C           -0.29590036622656       -2.50439189333046        0.20055779465940
C            0.38040788706301       -3.48377281675922       -0.51445575717774
C           -0.32138039970777       -4.61858632215312       -0.87725508781582
C           -1.66545167580987       -4.78168708447537       -0.54463562327680
C           -2.35294484048536       -3.80231015279447        0.14768779847818
C           -1.66871002500554       -2.65342214946851        0.51776856281759
C           -2.05996625264708       -1.45263374976355        1.19690261531671
N           -3.22730076487248       -1.08795900183529        1.69542908510039
C           -3.28941825928675        0.07865732528329        2.30452899596493
C           -2.19098622552376        0.92098441506494        2.48137040340892
C           -0.95268402436291        0.55423375565810        1.98071949229347
C           -0.89628569009142       -0.63592512731805        1.27360614065406
C            1.36135395128013        0.67180143399089       -0.28751170573345
N            0.15076437633161        1.26757282513038       -0.63780360485774
C           -0.29691657034118        2.50397957676476       -0.19994268576537
C            0.37898433228019        3.48360627961589        0.51511729046322
C           -0.32328191450995        4.61810309730423        0.87798248317862
C           -1.66742262874234        4.78065483294921        0.54537400445220
C           -2.35450315109158        3.80103311406446       -0.14701367112419
C           -1.66978561817707        2.65245234362191       -0.51715921790902
C           -2.06053786580494        1.45153385001484       -1.19634781454623
N           -3.22770742047503        1.08639308834113       -1.69491609736224
C           -3.28933815044969       -0.08022751855139       -2.30405930912382
C           -2.19055882089922       -0.92210673564205       -2.48088970465467
C           -0.95242224385187       -0.55486729068012       -1.98019300029796
C           -0.89651977125748        0.63530025553735       -1.27305723704958
C            2.56117079194530        1.30758998883404       -0.52219924712127
C            3.78094850697458        0.67920640459953       -0.27931790970758
C            4.97391894448780        1.31460655384323       -0.59624854238199
N            5.95409470521907        1.87667926437836       -0.83813321636308
H            2.56563833278111       -2.28863856228035        0.97437885213183
H            1.41781605799919       -3.36766469091058       -0.78795776901919
H            0.18479455431839       -5.39432039415767       -1.43118650640248
H           -2.17540939990645       -5.68463814732423       -0.84364493209257
H           -3.39742984847342       -3.90806536752458        0.39298183378170
H           -4.25946862405096        0.34939197385130        2.69592403314419
H           -2.30460317465675        1.84446534177166        3.02550669971780
H           -0.07457560093480        1.16040215847570        2.15230681690053
H            1.41644190754424        3.36791357630160        0.78861003713161
H            0.18256301118928        5.39401735929115        1.43196293652509
H           -2.17776308774575        5.68336997893321        0.84444251688039
H           -3.39903100432296        3.90636587094566       -0.39230427189918
H           -4.25926188234756       -0.35133446664915       -2.69550133702567
H           -2.30379019215967       -1.84561584202951       -3.02505595938646
H           -0.07406314442899       -1.16068154652211       -2.15175882108279
H            2.56472298281566        2.28935102163865       -0.97389423901146
