52
 energy: -89.929828678637 gnorm: 0.000080454447 xtb: 6.7.1 (edcfbbe)
N           -1.81445634771600       -6.24727718347842        0.88551091847886
C           -1.27488750064071       -5.27055651812081        0.62676759483204
C           -0.63122985628287       -4.05154511878494        0.31049229948787
C           -1.24282625735574       -2.84351388042879        0.62479860513828
C           -0.62660852746844       -1.63389857225958        0.32822788601146
N           -1.24629391284368       -0.43673372430972        0.68417579845176
C           -2.51034595685013       -0.02538651760624        0.27373231110957
C           -3.48605631677483       -0.73074764826493       -0.41283928496814
C           -4.65371830288322       -0.06397174117395       -0.73671030404702
C           -4.84793589989714        1.27288091295381       -0.39823197886653
C           -3.87145323804408        1.98582945066644        0.26835786918504
C           -2.69348681998376        1.33403524189679        0.60613801262802
C           -1.48592035222784        1.76309657373301        1.25613331441932
N           -1.16294120663682        2.94638093926363        1.75145042782239
C            0.02594177507942        3.04388147883602        2.31520427856296
C            0.91325343581896        1.97904257922975        2.46346801955649
C            0.58559925528286        0.73132889351241        1.95965103331491
C           -0.62490519261199        0.63799781572220        1.29343740906295
C            0.62648475778080       -1.63401906019288       -0.32862963723708
N            1.24633100914528       -0.43697658627214       -0.68470863655508
C            2.51032847324043       -0.02571144859517       -0.27399101282488
C            3.48587592512767       -0.73117429151650        0.41270796888561
C            4.65344625734171       -0.06443563886911        0.73698912629113
C            4.84772982397371        1.27247531208007        0.39877996898018
C            3.87142635645078        1.98550563302413       -0.26798348632421
C            2.69356046604897        1.33374754578202       -0.60618196407272
C            1.48612406603958        1.76292272418631       -1.25634266360082
N            1.16327532323375        2.94628071544663       -1.75156696486724
C           -0.02552556233616        3.04390513215021       -2.31547186199374
C           -0.91290619617463        1.97914682617706       -2.46390744201299
C           -0.58539282138640        0.73136058515721       -1.96017696785038
C            0.62506009164583        0.63786951683157       -1.29389212810151
C            1.24263302135814       -2.84374285408290       -0.62490563777361
C            0.63102877343389       -4.05165778367315       -0.31019413127999
C            1.27462749087337       -5.27078260219212       -0.62621879814616
N            1.81427617901642       -6.24762524114641       -0.88424815346864
H           -2.19289422021242       -2.84381847315119        1.13813222683178
H           -3.34547741225949       -1.76253944761240       -0.69960323486046
H           -5.42991823181125       -0.59440494042338       -1.26767838658597
H           -5.77478074789993        1.75480219415778       -0.66963290790582
H           -3.99987423909392        3.02500405002772        0.52463678428464
H            0.27947485494321        4.02440692419414        2.69319517447792
H            1.85082031246667        2.12515914578941        2.97580682639505
H            1.24224306267029       -0.11672317166086        2.09124760849759
H            3.34523978439960       -1.76301344423046        0.69927435879879
H            5.42951284812451       -0.59494523310180        1.26807515448147
H            5.77446443544816        1.75438887981573        0.67057167081649
H            3.99988488309030        3.02473141679595       -0.52403568721968
H           -0.27897547672524        4.02449967091286       -2.69334091450600
H           -1.85042547030110        2.12539343503316       -2.97629619681066
H           -1.24209043845098       -0.11663194016269       -2.09190380379330
H            2.19268584285664       -2.84423753205573       -1.13826846114796
