  40
  -70.1109127700000       0.112268787047251      !
 C          5.6611557498        1.4310858509        1.6590383204
 C          4.5686160818        0.7350254153        0.9137922656
 C          3.2545031118        0.9545138407        1.1218563550
 C          2.2851909289        0.2341224522        0.3486917682
 N          1.0032985972        0.4238608964        0.5669642663
 C          0.0963379968       -0.2781016443       -0.1459659688
 N         -1.2670666644       -0.0270778936        0.0727971877
 C         -1.7878336162        1.2474129933       -0.0912677620
 C         -0.9812425984        2.3789835650       -0.2118392916
 C         -1.5448681203        3.6256540327       -0.3954990494
 C         -2.9281245341        3.7703764828       -0.4905718583
 C         -3.7458723103        2.6648054372       -0.3937014708
 C         -3.1921451440        1.4034607767       -0.1855949017
 O         -4.0443155920        0.3537278522       -0.1029486433
 C         -3.5316677560       -0.8742051654        0.1650046802
 C         -4.4131804667       -1.9328610295        0.3113146603
 C         -3.9393275249       -3.1929570232        0.6249653438
 C         -2.5656446708       -3.3925469640        0.8181270623
 C         -1.6773408835       -2.3594894742        0.6558740845
 C         -2.1279633297       -1.0766225390        0.2989282573
 C          0.4795754854       -1.2171871803       -1.1229234318
 C          1.8094178871       -1.4294284722       -1.3606349690
 C          2.7758250710       -0.6977118671       -0.6091279000
 C          4.1748263791       -0.8993057436       -0.7962142966
 O          4.6992710623       -1.6527105963       -1.5955680129
 O          5.0346317272       -0.1351810371        0.0076005683
 H          6.2901659823        1.9786724179        0.9591150212
 H          5.2498399340        2.1164130010        2.3928910585
 H          6.2903133725        0.6952960333        2.1568897398
 H          2.9122888720        1.6525445327        1.8656179458
 H          0.0873851973        2.2674261063       -0.1382881914
 H         -0.9060743151        4.4905819100       -0.4756499078
 H         -3.3608620518        4.7453914448       -0.6491614949
 H         -4.8179217554        2.7427715217       -0.4765112977
 H         -5.4670160911       -1.7425156277        0.1848644391
 H         -4.6268629812       -4.0148198477        0.7385364320
 H         -2.2029829709       -4.3685209000        1.0991690564
 H         -0.6218326168       -2.5131873960        0.8146637403
 H         -0.2864053571       -1.7162308358       -1.6980105729
 H          2.1547976740       -2.1310908943       -2.1015129248
  40
  -70.1109123400000       0.112217713699856      !
 C          5.4940651520       -0.9783734079        2.3844127926
 C          4.4709151985       -0.6748828857        1.3381752087
 C          3.1467908777       -0.5912438411        1.5790545493
 C          2.2481052604       -0.2973670219        0.5009048155
 N          0.9602073303       -0.1828658999        0.7367500158
 C          0.1240332111        0.1242707166       -0.2782975445
 N         -1.2510584671        0.2091222576       -0.0097453991
 C         -1.9596032113        1.3161651073       -0.4173245418
 C         -1.3335955221        2.5160543566       -0.7973406590
 C         -2.0746000862        3.5787390996       -1.2491479565
 C         -3.4698552368        3.4884638624       -1.3483172197
 C         -4.1141171094        2.3338955638       -0.9453177202
 C         -3.3824229670        1.2595486211       -0.4658444487
 O         -4.0587855394        0.1623276010       -0.0409420501
 C         -3.3525016641       -0.8641761374        0.4904100371
 C         -4.0715708686       -1.9488160477        0.9875985435
 C         -3.4068017091       -3.0250243105        1.5356006594
 C         -2.0132506040       -3.0363916683        1.5784592660
 C         -1.2872765013       -1.9783720585        1.0695925685
 C         -1.9365577662       -0.8684264239        0.5290040616
 C          0.5868093623        0.3262171485       -1.5925586203
 C          1.9243032593        0.2127619444       -1.8549856035
 C          2.8175850214       -0.1012459002       -0.7886202394
 C          4.2246619933       -0.1996118917       -0.9989603927
 O          4.8108109484       -0.0688201666       -2.0577180665
 O          5.0103688029       -0.4973217748        0.1243391279
 H          5.0313776845       -1.0581612200        3.3628734742
 H          5.9988561284       -1.9127371429        2.1424671743
 H          6.2482671860       -0.1932810786        2.3967896461
 H          2.7460223799       -0.7282550427        2.5680753235
 H         -0.2612260293        2.5916208347       -0.7124647994
 H         -1.5782148543        4.4942693194       -1.5291873184
 H         -4.0409525493        4.3230251586       -1.7202983371
 H         -5.1881356785        2.2454919860       -0.9831104103
 H         -5.1475070036       -1.9166468566        0.9280076076
 H         -3.9672529559       -3.8608261047        1.9234181302
 H         -1.4946085985       -3.8806014895        2.0037380750
 H         -0.2108663135       -1.9874310692        1.1033819795
 H         -0.1305622345        0.5211411172       -2.3760545045
 H          2.3288133684        0.3508724020       -2.8438127592
  40
  -70.1109111800000       0.112080050290206      !
 C          5.6610494309        1.3892160763        1.6951135220
 C          4.5682965420        0.7146058049        0.9306617226
 C          3.2545441801        0.9429581235        1.1309064376
 C          2.2852277300        0.2356049885        0.3456558362
 N          1.0028591257        0.4307858704        0.5598021744
 C          0.0971339600       -0.2646942217       -0.1607961933
 N         -1.2670344023       -0.0186280251        0.0629138428
 C         -1.7930234835        1.2528842951       -0.1011647250
 C         -0.9911633761        2.3860285402       -0.2374731861
 C         -1.5606214086        3.6296253476       -0.4223174752
 C         -2.9458360484        3.7698431780       -0.5017631939
 C         -3.7592052106        2.6629002310       -0.3885926736
 C         -3.1994594104        1.4041679149       -0.1803442967
 O         -4.0467984819        0.3520449347       -0.0833040706
 C         -3.5273746137       -0.8739668637        0.1784545695
 C         -4.4032946786       -1.9362898479        0.3334532170
 C         -3.9215154420       -3.1944770418        0.6413939512
 C         -2.5447730731       -3.3891280264        0.8203420987
 C         -1.6621838473       -2.3527104275        0.6495658074
 C         -2.1210599146       -1.0714440063        0.2978610384
 C          0.4794442786       -1.1971751853       -1.1434323528
 C          1.8096343980       -1.4123149742       -1.3787125712
 C          2.7752151087       -0.6911287640       -0.6166368472
 C          4.1745417717       -0.8998665507       -0.7977392938
 O          4.6982204523       -1.6505099330       -1.6000328541
 O          5.0338943630       -0.1496669325        0.0184377822
 H          5.2526957145        2.1185543138        2.3870246784
 H          6.2338928390        0.6450450373        2.2463866982
 H          6.3432881647        1.8799095942        1.0032470176
 H          2.9123884006        1.6359136837        1.8794418815
 H          0.0787059967        2.2780858640       -0.1766593840
 H         -0.9258082692        4.4961557464       -0.5153180198
 H         -3.3830716083        4.7429198404       -0.6598070455
 H         -4.8324338558        2.7373298496       -0.4586408645
 H         -5.4591305248       -1.7498306894        0.2181286268
 H         -4.6044348484       -4.0193576886        0.7607838639
 H         -2.1754332264       -4.3640965193        1.0961827100
 H         -0.6046084315       -2.5029367974        0.7974971359
 H         -0.2865896610       -1.6914738232       -1.7225012778
 H          2.1552018947       -2.1099913787       -2.1231241022
  40
  -70.1109105900000       0.112010096636524      !
 C          5.5045077156       -0.9322559321        2.3856320797
 C          4.4764204095       -0.6525980743        1.3376698673
 C          3.1521643542       -0.5768058811        1.5804943415
 C          2.2492574537       -0.2980115090        0.5018749350
 N          0.9615465616       -0.1861854110        0.7401979451
 C          0.1224744935        0.1132072254       -0.2745234458
 N         -1.2518255451        0.2033328833       -0.0030481078
 C         -1.9554239159        1.3134103649       -0.4103196669
 C         -1.3236483877        2.5118940307       -0.7848480778
 C         -2.0592850438        3.5780634909       -1.2371201662
 C         -3.4543625268        3.4918402662       -1.3435368413
 C         -4.1042331587        2.3381676475       -0.9467738270
 C         -3.3781158248        1.2606429269       -0.4660125328
 O         -4.0590582652        0.1634502315       -0.0477279832
 C         -3.3576800106       -0.8656996273        0.4851340130
 C         -4.0811910433       -1.9507398268        0.9752310439
 C         -3.4208227029       -3.0289164970        1.5248058956
 C         -2.0274665725       -3.0421544495        1.5768840978
 C         -1.2969898376       -1.9842147392        1.0743262874
 C         -1.9420787569       -0.8728279041        0.5316910690
 C          0.5809299354        0.3068542758       -1.5915605960
 C          1.9176124832        0.1927140183       -1.8571984798
 C          2.8147374327       -0.1101443999       -0.7907339951
 C          4.2217021498       -0.2034141924       -1.0037562635
 O          4.8045739437       -0.0796501109       -2.0651957803
 O          5.0119244952       -0.4846006196        0.1207052490
 H          6.2263464616       -0.1181086079        2.4151939741
 H          5.0400429992       -1.0438783386        3.3597547121
 H          6.0476435869       -1.8412479289        2.1329897565
 H          2.7545182366       -0.7058246780        2.5718714736
 H         -0.2516790017        2.5827060060       -0.6962861640
 H         -1.5586875567        4.4928463480       -1.5122765650
 H         -4.0211272080        4.3290443689       -1.7161791897
 H         -5.1779360102        2.2534270359       -0.9899405838
 H         -5.1569944391       -1.9170652841        0.9090298358
 H         -3.9845331323       -3.8651631667        1.9069686490
 H         -1.5125325234       -3.8879884967        2.0043507410
 H         -0.2205686784       -1.9942357823        1.1140604414
 H         -0.1392008369        0.4966158372       -2.3737916323
 H          2.3189789287        0.3239111421       -2.8482449070
  40
  -70.1109099400000       0.111933079597071      !
 C          5.4986118189       -0.9915744075        2.3766567718
 C          4.4732184331       -0.6864189482        1.3330064669
 C          3.1500343125       -0.5983507944        1.5780051379
 C          2.2494249281       -0.2973601195        0.5035090058
 N          0.9624636690       -0.1810026613        0.7420876366
 C          0.1241630240        0.1316560505       -0.2694069664
 N         -1.2505890350        0.2143135226       -0.0003109129
 C         -1.9613092727        1.3188671515       -0.4119802705
 C         -1.3372185804        2.5214137778       -0.7867145215
 C         -2.0790682588        3.5807148858       -1.2453619732
 C         -3.4725738427        3.4841479898       -1.3564929636
 C         -4.1152923043        2.3269609971       -0.9578159548
 C         -3.3829162246        1.2562654725       -0.4717005698
 O         -4.0581914702        0.1559374133       -0.0521541395
 C         -3.3512582549       -0.8671346322        0.4855351747
 C         -4.0694757715       -1.9544976167        0.9777444750
 C         -3.4042102677       -3.0277533620        1.5313426614
 C         -2.0114139213       -3.0329606697        1.5852624453
 C         -1.2860772057       -1.9719110904        1.0812855383
 C         -1.9361466031       -0.8655134999        0.5346140272
 C          0.5852695695        0.3392415242       -1.5841326873
 C          1.9215855920        0.2247975279       -1.8496604771
 C          2.8169701545       -0.0967037568       -0.7868300187
 C          4.2224917749       -0.1976157711       -1.0013022852
 O          4.8075410130       -0.0618957314       -2.0600443697
 O          5.0103324433       -0.5066616230        0.1188172468
 H          6.0949073458       -1.8470590432        2.0642501981
 H          6.1740911670       -0.1439391610        2.4843083006
 H          5.0256905005       -1.2019289335        3.3309767394
 H          2.7518070297       -0.7364336995        2.5679200826
 H         -0.2659411666        2.6014953715       -0.6927790767
 H         -1.5841057754        4.4980452818       -1.5220429654
 H         -4.0443989756        4.3156305204       -1.7343895250
 H         -5.1885781595        2.2339087757       -1.0047112000
 H         -5.1450610283       -1.9271266210        0.9100943660
 H         -3.9642632701       -3.8656047872        1.9152131879
 H         -1.4921566451       -3.8746261355        2.0149541188
 H         -0.2098317302       -1.9758513553        1.1230084068
 H         -0.1337584577        0.5381560290       -2.3651203074
 H          2.3244416777        0.3668692895       -2.8386119859
  40
  -70.1109083700000       0.111747272185810      !
 C          5.6575086685        1.3947463665        1.6962006882
 C          4.5669545394        0.7198588569        0.9284292660
 C          3.2526659262        0.9451723765        1.1294452676
 C          2.2845143196        0.2359883669        0.3445797731
 N          1.0023049053        0.4276767049        0.5586289360
 C          0.0966152937       -0.2707259415       -0.1593118714
 N         -1.2671396309       -0.0227376163        0.0611805301
 C         -1.7913003802        1.2499566397       -0.1023928081
 C         -0.9872591437        2.3819738737       -0.2364503925
 C         -1.5544231386        3.6273192906       -0.4178247071
 C         -2.9389268105        3.7703550675       -0.4962933391
 C         -3.7543746913        2.6641235307       -0.3862813621
 C         -3.1968147780        1.4040876226       -0.1817544906
 O         -4.0465995054        0.3530506291       -0.0877446909
 C         -3.5290714519       -0.8738331165        0.1756263068
 C         -4.4072450678       -1.9338510469        0.3322167121
 C         -3.9280657310       -3.1925856812        0.6433659719
 C         -2.5524489458       -3.3895351166        0.8234237917
 C         -1.6675840072       -2.3550101149        0.6507632900
 C         -2.1239969401       -1.0738444170        0.2962944572
 C          0.4811753807       -1.2059590786       -1.1396767988
 C          1.8113070710       -1.4174318646       -1.3758549978
 C          2.7767346356       -0.6911339362       -0.6173699582
 C          4.1756766930       -0.8961300857       -0.7994520299
 O          4.7016802459       -1.6451948741       -1.6016969277
 O          5.0345404925       -0.1412889839        0.0144986151
 H          6.2262193445        0.6509109105        2.2526306253
 H          6.3443312572        1.8826035990        1.0067354075
 H          5.2467917500        2.1256448394        2.3842966234
 H          2.9097578018        1.6367705365        1.8790781903
 H          0.0823978148        2.2721298849       -0.1758640828
 H         -0.9176896106        4.4926482584       -0.5091067879
 H         -3.3746461942        4.7445281930       -0.6518159560
 H         -4.8275189802        2.7406701567       -0.4563202648
 H         -5.4626381077       -1.7458642497        0.2157105258
 H         -4.6131558964       -4.0153888122        0.7646584416
 H         -2.1850479826       -4.3643787894        1.1022616567
 H         -0.6103514297       -2.5067415383        0.7995260134
 H         -0.2841813951       -1.7024967855       -1.7177689582
 H          2.1581202224       -2.1155794329       -2.1194164868
  40
  -70.1109055400000       0.111413124175515      !
 C          5.4662102118       -2.0894526724       -1.6337956029
 C          4.4551871344       -1.2908640109       -0.8763815356
 C          3.1270336727       -1.3440276843       -1.1037467790
 C          2.2418074889       -0.5302579168       -0.3223932682
 N          0.9495947684       -0.5529115539       -0.5624898099
 C          0.1278847248        0.2435407700        0.1536086518
 N         -1.2526658315        0.1815961189       -0.0942688822
 C         -1.9560990263        1.3418741516       -0.3214150539
 C         -1.3265763203        2.5509499997       -0.6640589351
 C         -2.0602418192        3.6984664072       -0.8288404599
 C         -3.4505899964        3.6915896640       -0.6492636176
 C         -4.0990353565        2.5089351293       -0.3474392532
 C         -3.3758386135        1.3363092705       -0.2011561932
 O         -4.0561823646        0.1900753236        0.0544744161
 C         -3.3595975158       -0.9691766777        0.1331011968
 C         -4.0847047082       -2.1433076355        0.3249908329
 C         -3.4288556127       -3.3523151161        0.4154987355
 C         -2.0378856294       -3.4006906004        0.3303549437
 C         -1.3050747112       -2.2428029791        0.1636593354
 C         -1.9462134534       -1.0094516054        0.0506440954
 C          0.6088707988        1.1041667967        1.1589191887
 C          1.9501313679        1.1386382334        1.4231011539
 C          2.8288800404        0.3089299356        0.6661609116
 C          4.2389985800        0.3304983958        0.8767273342
 O          4.8390647414        0.9904395543        1.7048805160
 O          5.0107178881       -0.5097392777        0.0599909582
 H          6.1736094971       -1.4180062329       -2.1177231362
 H          6.0298378145       -2.7157607570       -0.9442969849
 H          4.9839308454       -2.7110547857       -2.3810421943
 H          2.7137012105       -1.9747261892       -1.8712181319
 H         -0.2581997244        2.5562259708       -0.8094488813
 H         -1.5620253694        4.6156173339       -1.1001860175
 H         -4.0152124327        4.6022018309       -0.7635353728
 H         -5.1698482806        2.4674841842       -0.2317390592
 H         -5.1580991360       -2.0725911984        0.4004903773
 H         -3.9943084239       -4.2591973433        0.5604368786
 H         -1.5268848950       -4.3469028288        0.4049779041
 H         -0.2305370100       -2.2790508108        0.0986377727
 H         -0.0980889245        1.6861870074        1.7315782455
 H          2.3687540031        1.7734850648        2.1861798309
  40
  -70.1108271200000       0.102540874258819      !
 C          5.4701184282       -2.0891890981       -1.6285252911
 C          4.4583758661       -1.2846533180       -0.8777997351
 C          3.1317088043       -1.3299526736       -1.1158565405
 C          2.2434909374       -0.5232245872       -0.3311637145
 N          0.9521745352       -0.5430918181       -0.5768074849
 C          0.1278447914        0.2471373437        0.1425288571
 N         -1.2524702778        0.1834283073       -0.1060294508
 C         -1.9584178564        1.3430946097       -0.3264662449
 C         -1.3317611452        2.5531468241       -0.6706513323
 C         -2.0669013017        3.7004700022       -0.8284312009
 C         -3.4557569461        3.6924587765       -0.6396084603
 C         -4.1014728378        2.5090733591       -0.3350996860
 C         -3.3768928354        1.3365761732       -0.1957257498
 O         -4.0541571302        0.1896684391        0.0657148735
 C         -3.3563058285       -0.9689231141        0.1370837108
 C         -4.0783032304       -2.1437712667        0.3370307534
 C         -3.4212797687       -3.3523585066        0.4192420243
 C         -2.0319335681       -3.4003956290        0.3161374353
 C         -1.3015823329       -2.2418183584        0.1427468465
 C         -1.9443116875       -1.0088732127        0.0400857708
 C          0.6055307337        1.1033148553        1.1532246392
 C          1.9456613103        1.1345836044        1.4235031624
 C          2.8265010070        0.3061391524        0.6676411375
 C          4.2349844250        0.3200619979        0.8890226436
 O          4.8314053496        0.9707654284        1.7274250871
 O          5.0097421069       -0.5157418425        0.0707594655
 H          5.0332980592       -2.5163070406       -2.5254026899
 H          6.3159758711       -1.4576656463       -1.8912924799
 H          5.8435898659       -2.8922953444       -0.9944293694
 H          2.7222887470       -1.9509945911       -1.8930501564
 H         -0.2645331579        2.5583653625       -0.8227002067
 H         -1.5715641768        4.6183093588       -1.1019292558
 H         -4.0211794426        4.6030040888       -0.7487479031
 H         -5.1711885489        2.4670161676       -0.2113083926
 H         -5.1503355081       -2.0735740357        0.4238218016
 H         -3.9838626925       -4.2597207443        0.5704375286
 H         -1.5198234352       -4.3469726538        0.3815333815
 H         -0.2279184926       -2.2770037156        0.0649758535
 H         -0.1030463404        1.6838909461        1.7252130240
 H          2.3616349242        1.7656233797        2.1909856244
  40
  -70.1104187700000       6.656291754266776E-002 !
 C          5.4892165464       -0.9217908579        2.4064700939
 C          4.4721074884       -0.6459377052        1.3426751722
 C          3.1446195414       -0.5849649077        1.5770147665
 C          2.2466195581       -0.3081282281        0.4949810553
 N          0.9566734180       -0.2037591487        0.7268266348
 C          0.1220510344        0.0961055259       -0.2924639929
 N         -1.2525499181        0.1900297507       -0.0236146850
 C         -1.9520675808        1.3053602924       -0.4251833605
 C         -1.3158820534        2.4961688363       -0.8161121841
 C         -2.0490199010        3.5678054481       -1.2598298931
 C         -3.4465736299        3.4961690393       -1.3377287088
 C         -4.1001221089        2.3511313753       -0.9227266668
 C         -3.3758865163        1.2672382244       -0.4529576913
 O         -4.0611929402        0.1801940920       -0.0163647158
 C         -3.3609830909       -0.8573680224        0.5023556913
 C         -4.0869014171       -1.9335487939        1.0072388533
 C         -3.4282473946       -3.0207875586        1.5410696659
 C         -2.0341675552       -3.0511539481        1.5621121192
 C         -1.3017288034       -2.0008936077        1.0466935737
 C         -1.9446135664       -0.8800066860        0.5202882399
 C          0.5861337490        0.2903416621       -1.6063340789
 C          1.9255913701        0.1846353270       -1.8651890453
 C          2.8182829427       -0.1115001297       -0.7933855906
 C          4.2276698981       -0.1892909039       -0.9974121685
 O          4.8165384769       -0.0563693302       -2.0545584203
 O          5.0132365677       -0.4661198606        0.1321744614
 H          5.4072378841       -0.1900978695        3.2072960622
 H          5.3321855875       -1.9109698765        2.8322607509
 H          6.4840936732       -0.8733763692        1.9733007994
 H          2.7457201236       -0.7239617877        2.5667433630
 H         -0.2415408216        2.5577418080       -0.7468880314
 H         -1.5445832508        4.4757254654       -1.5500620062
 H         -4.0122340698        4.3375630736       -1.7026674053
 H         -5.1758658336        2.2766344461       -0.9436719237
 H         -5.1633368241       -1.8874170030        0.9642826626
 H         -3.9932474011       -3.8510141051        1.9341956160
 H         -1.5203580758       -3.9046145169        1.9747667333
 H         -0.2250429900       -2.0248058274        1.0641308759
 H         -0.1305122553        0.4754017692       -2.3929115857
 H          2.3313997474        0.3184426130       -2.8540034972
  40
  -70.1094516300000       2.392024256797226E-002 !
 C          5.6409595005        0.4741165288        2.2274649894
 C          4.5524855174        0.1830588636        1.2456839512
 C          3.2406995841        0.3777045440        1.4874103015
 C          2.2808857034        0.0508566379        0.4728297378
 N          0.9938495754        0.2274496869        0.7120193013
 C          0.1060950909       -0.1044058758       -0.2428650271
 N         -1.2701799773        0.0841815354        0.0347868331
 C         -1.8640182455        1.2902879118       -0.2487843710
 C         -1.1243468755        2.4307359498       -0.5715885216
 C         -1.7608946994        3.6065742184       -0.8924908054
 C         -3.1636876265        3.6713079398       -0.9236193622
 C         -3.9162019666        2.5615367813       -0.6134582378
 C         -3.2891145678        1.3686309366       -0.2624020381
 O         -4.0618002609        0.3001642655        0.0400673023
 C         -3.4618998968       -0.8643722588        0.3786589925
 C         -4.2622455123       -1.9585291430        0.6911203553
 C         -3.6859820091       -3.1557765771        1.0518990731
 C         -2.2864100339       -3.2795026440        1.1059646626
 C         -1.4797446693       -2.2178344891        0.7773351478
 C         -2.0387032986       -0.9899902574        0.4055454879
 C          0.4809528152       -0.6246652850       -1.4844539369
 C          1.8162096225       -0.8046588948       -1.7502519493
 C          2.7683178005       -0.4662950009       -0.7510358824
 C          4.1730705231       -0.6485938013       -0.9692716278
 O          4.6959914288       -1.0741805774       -1.9800757066
 O          5.0191476068       -0.3003271898        0.0847555237
 H          6.3432736650        1.1855225101        1.7966801356
 H          5.2303346223        0.8771060595        3.1472609459
 H          6.1923556389       -0.4396124507        2.4436226249
 H          2.8915631099        0.7658197321        2.4277869712
 H         -0.0477565314        2.3716476570       -0.5562543070
 H         -1.1806955704        4.4836220796       -1.1294049181
 H         -3.6520098040        4.5939785816       -1.1926784450
 H         -4.9941409156        2.5859544723       -0.6321756318
 H         -5.3329684291       -1.8376652892        0.6465175500
 H         -4.3086988704       -4.0008513106        1.2967089653
 H         -1.8448869377       -4.2167794879        1.4036136787
 H         -0.4053544816       -2.3077718611        0.8099749829
 H         -0.2814085454       -0.8666474720       -2.2095743956
 H          2.1656261173       -1.1981410640       -2.6900570578
  40
  -70.1094270400000       2.330584199830823E-002 !
 C          5.6236791750        0.4633551464        2.2496499345
 C          4.5422560055        0.1743858986        1.2593212657
 C          3.2273590347        0.3510894318        1.4988085559
 C          2.2757760241        0.0334904645        0.4738039167
 N          0.9865643384        0.1996059187        0.7094783351
 C          0.1059168988       -0.1181987598       -0.2570907209
 N         -1.2713370488        0.0718178373        0.0165199043
 C         -1.8600996325        1.2801312738       -0.2653976671
 C         -1.1162809933        2.4135490559       -0.6045456379
 C         -1.7483760088        3.5927399017       -0.9214494527
 C         -3.1511224164        3.6692199799       -0.9296428753
 C         -3.9077081913        2.5669388155       -0.6018496312
 C         -3.2852492497        1.3704603676       -0.2563677106
 O         -4.0612207916        0.3096714647        0.0649508141
 C         -3.4648464379       -0.8589045260        0.3969251067
 C         -4.2688770649       -1.9447785895        0.7283056695
 C         -3.6962069921       -3.1464964887        1.0806413009
 C         -2.2968112214       -3.2826742973        1.1072100812
 C         -1.4869087880       -2.2282273444        0.7626003495
 C         -2.0421841295       -0.9963864483        0.3990162433
 C          0.4892651230       -0.6158672890       -1.5046635822
 C          1.8273242494       -0.7864032567       -1.7658809231
 C          2.7723647466       -0.4585935066       -0.7566443276
 C          4.1799850885       -0.6237363987       -0.9716541725
 O          4.7118791761       -1.0280246723       -1.9864824874
 O          5.0180374719       -0.2843820125        0.0918830791
 H          6.2060086498       -0.4389682306        2.4292278257
 H          6.3001157829        1.2150561313        1.8455315740
 H          5.2020306164        0.8179052073        3.1847078240
 H          2.8690819295        0.7200432858        2.4435565843
 H         -0.0399513072        2.3458995319       -0.6064865976
 H         -1.1644315849        4.4636960663       -1.1711486500
 H         -3.6362478526        4.5947941062       -1.1943417061
 H         -4.9858743074        2.6012247742       -0.6009788238
 H         -5.3392089962       -1.8145248914        0.7037247095
 H         -4.3213167659       -3.9858342700        1.3388616854
 H         -1.8582198086       -4.2240468870        1.3964558826
 H         -0.4126665821       -2.3278806769        0.7742498541
 H         -0.2679307219       -0.8488830953       -2.2380965008
 H          2.1828497140       -1.1628964062       -2.7104286452
