  40
        -70.11091277
 C          5.6611557498        1.4310858509        1.6590383204
 C          4.5686160818        0.7350254153        0.9137922656
 C          3.2545031118        0.9545138407        1.1218563550
 C          2.2851909289        0.2341224522        0.3486917682
 N          1.0032985972        0.4238608964        0.5669642663
 C          0.0963379968       -0.2781016443       -0.1459659688
 N         -1.2670666644       -0.0270778936        0.0727971877
 C         -1.7878336162        1.2474129933       -0.0912677620
 C         -0.9812425984        2.3789835650       -0.2118392916
 C         -1.5448681203        3.6256540327       -0.3954990494
 C         -2.9281245341        3.7703764828       -0.4905718583
 C         -3.7458723103        2.6648054372       -0.3937014708
 C         -3.1921451440        1.4034607767       -0.1855949017
 O         -4.0443155920        0.3537278522       -0.1029486433
 C         -3.5316677560       -0.8742051654        0.1650046802
 C         -4.4131804667       -1.9328610295        0.3113146603
 C         -3.9393275249       -3.1929570232        0.6249653438
 C         -2.5656446708       -3.3925469640        0.8181270623
 C         -1.6773408835       -2.3594894742        0.6558740845
 C         -2.1279633297       -1.0766225390        0.2989282573
 C          0.4795754854       -1.2171871803       -1.1229234318
 C          1.8094178871       -1.4294284722       -1.3606349690
 C          2.7758250710       -0.6977118671       -0.6091279000
 C          4.1748263791       -0.8993057436       -0.7962142966
 O          4.6992710623       -1.6527105963       -1.5955680129
 O          5.0346317272       -0.1351810371        0.0076005683
 H          6.2901659823        1.9786724179        0.9591150212
 H          5.2498399340        2.1164130010        2.3928910585
 H          6.2903133725        0.6952960333        2.1568897398
 H          2.9122888720        1.6525445327        1.8656179458
 H          0.0873851973        2.2674261063       -0.1382881914
 H         -0.9060743151        4.4905819100       -0.4756499078
 H         -3.3608620518        4.7453914448       -0.6491614949
 H         -4.8179217554        2.7427715217       -0.4765112977
 H         -5.4670160911       -1.7425156277        0.1848644391
 H         -4.6268629812       -4.0148198477        0.7385364320
 H         -2.2029829709       -4.3685209000        1.0991690564
 H         -0.6218326168       -2.5131873960        0.8146637403
 H         -0.2864053571       -1.7162308358       -1.6980105729
 H          2.1547976740       -2.1310908943       -2.1015129248
