  80
       -125.46365751
 C          7.9800359874       -4.7679225313        0.1226160293
 C          6.5931581815       -4.7909219328        0.0846065003
 C          5.8798813737       -3.6108225277        0.0454857811
 C          6.5501212320       -2.3860172603        0.0436662141
 C          5.8025049632       -1.1367927686        0.0052890517
 N          6.4969942272        0.0201870259        0.0020215859
 C          5.7747810952        1.1572890758       -0.0315800551
 C          6.4906603823        2.4267989317       -0.0315282698
 C          5.7884953531        3.6326499834       -0.0673778714
 C          6.4703173292        4.8319117912       -0.0636645034
 C          7.8570166316        4.8464370136       -0.0245258995
 C          8.5602721099        3.6521017835        0.0105610196
 C          7.8851659500        2.4479886635        0.0071189330
 N          4.4683674680        1.1668662176       -0.0628233221
 C          3.8016827837       -0.0147476433       -0.0528265664
 C          2.3848752474       -0.0298313828       -0.0678335317
 C          1.6501140088        1.1757899052       -0.0848207865
 C          0.2799043193        1.1612741332       -0.0811880265
 C         -0.4092507099       -0.0546813695       -0.0627628570
 N         -1.8335464703       -0.0630144988       -0.0399459934
 C         -2.4813118601        0.1421273405        1.1605223092
 C         -1.7402142803        0.3112119615        2.3381079196
 C         -2.3732968205        0.5214130123        3.5429088296
 C         -3.7586418234        0.5651957238        3.6072386454
 C         -4.4982319760        0.3881633550        2.4529630095
 C         -3.8806270274        0.1741668099        1.2298814600
 C         -4.7361800970       -0.0196673208        0.0060255098
 C         -5.7462451190       -1.1306040568        0.2325919269
 C         -5.5010869680       -2.4636440798        0.4744645660
 C         -6.5850788671       -3.3119040755        0.6588228489
 C         -7.8829736897       -2.8276252478        0.6010773302
 C         -8.1326681313       -1.4863528166        0.3576254492
 C         -7.0559693087       -0.6350869548        0.1726130838
 C         -6.9981467603        0.7945014243       -0.0931669204
 C         -8.0022908425        1.7364827808       -0.2431417359
 C         -7.6452935902        3.0517545545       -0.4943984669
 C         -6.3129119724        3.4217871155       -0.5946621337
 C         -5.3012167420        2.4822675106       -0.4452536418
 C         -5.6532041861        1.1749863771       -0.1952399514
 C         -3.9262442890       -0.2753635537       -1.2371046264
 C         -4.5885549261       -0.4986571979       -2.4348036738
 C         -3.8915349708       -0.7164475594       -3.6085129104
 C         -2.5041712129       -0.7025922744       -3.5905457430
 C         -1.8269170265       -0.4826321665       -2.4117227955
 C         -2.5247886744       -0.2741126998       -1.2143471298
 C          0.3013526242       -1.2583641998       -0.0545996007
 C          1.6718739132       -1.2485185573       -0.0577393867
 N          4.4963870876       -1.1775896977       -0.0188651633
 C          7.9452537322       -2.3697093043        0.0815474634
 C          8.6517469254       -3.5548524879        0.1209301904
 H          8.5353959354       -5.6939399177        0.1535993177
 H          6.0703255364       -5.7365642764        0.0857446020
 H          4.8011523843       -3.6127748582        0.0161221373
 H          4.7101593476        3.6052125260       -0.0977031914
 H          5.9228689727        5.7630896977       -0.0912769684
 H          8.3875975372        5.7873727229       -0.0210261846
 H          9.6402115061        3.6638658754        0.0410373867
 H          8.4175231397        1.5100372834        0.0344840550
 H          2.1955100441        2.1062287336       -0.0992237496
 H         -0.2837816470        2.0834065131       -0.0913083399
 H         -0.6632763363        0.2718598120        2.2940493858
 H         -1.7838163594        0.6501829138        4.4378929315
 H         -4.2570337286        0.7315636143        4.5495087902
 H         -5.5773870011        0.4141696818        2.4936978155
 H         -4.4899134635       -2.8411771981        0.5207358299
 H         -6.4146595789       -4.3609230505        0.8501877772
 H         -8.7105457999       -3.5059533004        0.7484118051
 H         -9.1452329466       -1.1137802553        0.3138204566
 H         -9.0413942686        1.4530559595       -0.1658692313
 H         -8.4151900458        3.7998433374       -0.6139371376
 H         -6.0583330869        4.4526142252       -0.7913464187
 H         -4.2632010556        2.7713107962       -0.5239380716
 H         -5.6688170973       -0.4980420981       -2.4400341928
 H         -4.4243483034       -0.8897607077       -4.5304910055
 H         -1.9479063910       -0.8625318204       -4.5016425958
 H         -0.7484400990       -0.4665234312       -2.4030896038
 H         -0.2457826144       -2.1904010613       -0.0411085670
 H          2.2335331391       -2.1693183643       -0.0463319929
 H          8.4529854250       -1.4176532396        0.0800614409
 H          9.7316914969       -3.5373719370        0.1508588010
