80
 energy: -125.540949239679 gnorm: 0.000083749185 xtb: 6.7.1 (edcfbbe)
C            7.92089118790830       -4.78904694473788        0.11347719142929
C            6.53526309085498       -4.79424822186452        0.07056255570242
C            5.83848811484400       -3.60204127153081        0.04155540737587
C            6.52748480048431       -2.39077028771681        0.05468358090128
C            5.79282404626507       -1.12612703634508        0.02428879407673
N            6.49369272565006        0.00364587310832       -0.00368690657870
C            5.78715091451306        1.12995057715738       -0.02831968497822
C            6.51519289963292        2.39833667813577       -0.06170608169040
C            5.81993410750829        3.60599972145499       -0.04725545279103
C            6.51038325082370        4.80180696354866       -0.07946800117551
C            7.89585509388823        4.80378166383066       -0.12702367162136
C            8.59219366280563        3.60510740115000       -0.14181968779827
C            7.90788196586693        2.40576985126939       -0.10900186423012
N            4.45749440017034        1.17285033199674       -0.02483421154501
C            3.83752088709529       -0.00295933498097        0.00119155719461
C            2.37483987501658       -0.00627791385553        0.00273723458042
C            1.67081916366688        1.19521566263646       -0.05931508818510
C            0.29164368332332        1.19269106003828       -0.05953867457182
C           -0.40358220522632       -0.01197480305945        0.00413758054311
N           -1.82090575626499       -0.01400699953738        0.00534820994679
C           -2.49609737155509        0.43719066124455        1.13230200673751
C           -1.78752292242476        0.83686670134779        2.26892725433569
C           -2.44788419802542        1.29261136302909        3.39149132891829
C           -3.83063390558555        1.35178557938795        3.41281620850253
C           -4.53910280162172        0.93108302432844        2.30338160467389
C           -3.89225478990500        0.46947280134947        1.16661439944786
C           -4.73001678079501       -0.00491260714613        0.00465777352598
C           -5.70686116832974       -1.07335899684786        0.45598844375776
C           -5.42741333733975       -2.31578865533003        0.97989065007418
C           -6.48775815888601       -3.14141109107350        1.32917613500064
C           -7.79867368239490       -2.72479290863137        1.15489715469137
C           -8.08426545398289       -1.47502270957415        0.62856054999912
C           -7.03061587004835       -0.64728270077988        0.27840461695521
C           -7.01208805773206        0.69377899772689       -0.28647044810168
C           -8.04242465849048        1.54703452949573       -0.64461793271534
C           -7.72230644832241        2.78910232006581       -1.16932973890745
C           -6.40031619845856        3.17318187882391       -1.33433075366113
C           -5.36322003192104        2.32191673273028       -0.97689930635578
C           -5.67706295891032        1.08714255928107       -0.45445109149627
C           -3.89458879935500       -0.49680446652182       -1.15170179541783
C           -4.54400906162225       -0.96377819389839       -2.28480312406718
C           -3.83797369999257       -1.39508778190420       -3.39170796085767
C           -2.45502011860719       -1.34056440920214       -3.37188587135252
C           -1.79208611547912       -0.87970694480320       -2.25291218862680
C           -2.49823760510192       -0.46979493756537       -1.11844644394040
C            0.29662784868659       -1.21376209611018        0.06740942504152
C            1.67586387290764       -1.21062405890940        0.06578689638546
N            4.46335887481034       -1.17568291530984        0.02578204547523
C            7.92033304946581       -2.39099447173099        0.09741047006977
C            8.61100533293528       -3.58677935740170        0.12695220802996
H            8.46346241758004       -5.72291068179094        0.13640323537369
H            5.99973825930922       -5.73232218765457        0.05969393525383
H            4.76056885708312       -3.58669736613791        0.00739041220096
H            4.74222760325978        3.58512973175056       -0.00946917125233
H            5.96997926236875        5.73707000919285       -0.06770739378668
H            8.43348532432639        5.74042689194125       -0.15268382089344
H            9.67173485098052        3.60926132149980       -0.17922632826370
H            8.43252331273315        1.46345048986283       -0.12076144597255
H            2.22375854638717        2.11944873267286       -0.11273619965531
H           -0.26111930679539        2.11945991004730       -0.10759679473054
H           -0.70973448318258        0.78270081447686        2.27447944272797
H           -1.87565064778503        1.59870630033930        4.25464540008722
H           -4.35163827396547        1.71096904515663        4.28674635306878
H           -5.61923664401693        0.95516648828352        2.31219291035200
H           -4.40587792923669       -2.64010623836320        1.11674288778234
H           -6.28941622018451       -4.11976295129110        1.74180809828550
H           -8.60796837582020       -3.38403006337865        1.43377142083616
H           -9.10708531669290       -1.15478165963358        0.49511327634778
H           -9.07378633548130        1.25222604011546       -0.51850412274439
H           -8.51308495735803        3.46786238788902       -1.45441889754628
H           -6.17488425091416        4.14601560676334       -1.74610918201722
H           -4.33304256257069        2.62089695134308       -1.10654304381346
H           -5.62424798177012       -0.98308472176382       -2.29293316767471
H           -4.36099026126961       -1.75814831830080       -4.26282982109272
H           -1.88459168762241       -1.65440703284085       -4.23345271942892
H           -0.71413091888302       -0.82938099981852       -2.25984763829204
H           -0.25223452978911       -2.14278742103560        0.11670601107226
H            2.23253251701623       -2.13265356137051        0.11876299959534
H            8.44016323287624       -1.44600300888845        0.10815361194710
H            9.69067137046548       -3.58529653293550        0.16073911215933
