80
 energy: -125.468650352748 gnorm: 0.000076627333 xtb: 6.7.1 (edcfbbe)
C            7.94283399178087       -4.79368664985012        0.20901020726186
C            6.55546225995257       -4.80643723987231        0.22487333030652
C            5.84969873038998       -3.62195211481875        0.17874362104643
C            6.52822361056192       -2.40356542570041        0.11607512807744
C            5.78882808725670       -1.15071100179858        0.06089835479416
N            6.49036465972116        0.00255535870213       -0.00347901469749
C            5.78438148930021        1.15314188202492       -0.06636157189776
C            6.51893840950827        2.40878364934094       -0.12326374867141
C            5.83566333960529        3.62458043863376       -0.18447830697030
C            6.53682844615894        4.81173028136642       -0.23234954977382
C            7.92426679399071        4.80422808472048       -0.21968406295763
C            8.60900682318955        3.60016660310885       -0.15918632326335
C            7.91451822005564        2.40809470174813       -0.11126015137534
N            4.48041080143067        1.17150338654387       -0.07725258476225
C            3.80305815784319       -0.00249773199209       -0.00056944953440
C            2.38442332566234       -0.00505120735209        0.00089228123153
C            1.65891142957521        1.19908390160846       -0.11690577378033
C            0.28762995568314        1.19386748548379       -0.11891440372115
C           -0.41077753187286       -0.00992328196738        0.00354436285969
N           -1.83448177464802       -0.01176373883279        0.00496964256586
C           -2.50480940938612        0.41392582850031        1.13464617731722
C           -1.78775626325437        0.80579273206856        2.27300122477608
C           -2.44365256844666        1.24670721615459        3.40121225661424
C           -3.82929707273813        1.30327706453905        3.42818822380379
C           -4.54593007247429        0.89812229913921        2.31790160286187
C           -3.90490917949326        0.44946774374463        1.17292372341070
C           -4.73989279735399       -0.00367363008863        0.00440660571728
C           -5.71613681567854       -1.08307188132393        0.43776958617685
C           -5.43177504912138       -2.33271076959382        0.94091181668227
C           -6.49026463271700       -3.16599188265846        1.27829058708005
C           -7.80220120630649       -2.74928257357911        1.11257985634940
C           -8.09153577366013       -1.49194166018680        0.60667855369890
C           -7.04035539610504       -0.65607595710025        0.26840503367701
C           -7.02536089447982        0.69421987659759       -0.27385213950565
C           -8.05768421563015        1.55070753529977       -0.61855729916954
C           -7.74042788180254        2.80208919667093       -1.12246983952967
C           -6.41951932059065        3.19282610229588       -1.27996539624322
C           -5.37983394587270        2.33877914737766       -0.93614839007510
C           -5.69201879633419        1.09502724006699       -0.43496696356030
C           -3.90695074027914       -0.47072196304944       -1.16011453100965
C           -4.55009905368430       -0.92287663136609       -2.30251737176901
C           -3.83545094917023       -1.33630772003788       -3.41103182469242
C           -2.44962700533621       -1.28395515363970       -3.38517547531351
C           -1.79162105975266       -0.83957420986373       -2.25954919829371
C           -2.50668254697117       -0.43990154384786       -1.12265927666753
C            0.29203160226204       -1.21127389907495        0.12491683133205
C            1.66333315775724       -1.21169067018688        0.12023296659781
N            4.48492297109783       -1.17393743747056        0.07463471590861
C            7.92377235516450       -2.39759671563259        0.10087415749680
C            8.62287079345822       -3.58703215856719        0.14707529585271
H            8.49227120638140       -5.72302649914391        0.24445720343215
H            6.02642515265476       -5.74730009899315        0.27279693281202
H            4.77070534533939       -3.61551724159254        0.18913582156683
H            4.75667783147806        3.61406850585960       -0.19239224698616
H            6.00411996046561        5.75057763548064       -0.27914341241655
H            8.47010297052854        5.73563947554420       -0.25649774308870
H            9.68938890451006        3.59471601936873       -0.14909436995404
H            8.43380280467160        1.46332181099597       -0.06324422698712
H            2.20918170427683        2.12183074309510       -0.21211994922278
H           -0.26812111766528        2.11584649072079       -0.21546352825477
H           -0.71044075450785        0.75584405463948        2.26271124372865
H           -1.87084541679437        1.54608127398505        4.26580248421277
H           -4.34564039362809        1.65198803639037        4.30897042033623
H           -5.62577241605979        0.92520999368683        2.33264560515403
H           -4.40970761971575       -2.65764024146360        1.07130937029661
H           -6.28876492314692       -4.15003031713551        1.67485225060924
H           -8.60949951014352       -3.41441332324944        1.38222971974293
H           -9.11493007109498       -1.17152085685576        0.47986781669837
H           -9.08798313831517        1.25058845857582       -0.49814713951838
H           -8.53273129917397        3.48306142762413       -1.39700676760651
H           -6.19615059105621        4.17270510279183       -1.67510990035557
H           -4.35075863358444        2.64345673246178       -1.06021868675913
H           -5.63004477001269       -0.94575656381641       -2.31679958896913
H           -4.35344902380066       -1.68768407563261       -4.28978023917632
H           -1.87830179862672       -1.58935423932266       -4.24863949868894
H           -0.71415627222234       -0.79298686025759       -2.25026820999679
H           -0.26030942625426       -2.13515453153567        0.22287815518843
H            2.21699599297974       -2.13250583702240        0.21452430097561
H            8.43935551908399       -1.45086004164351        0.05176018081430
H            9.70319818977818       -3.57749247901074        0.13449284717150
