  80
       -125.54084279
 C          7.9314116828       -4.7785154848        0.1747674322
 C          6.5498218944       -4.7890724374        0.0619081039
 C          5.8491455445       -3.5995976029        0.0176327491
 C          6.5304847045       -2.3858530689        0.0839321847
 C          5.7929651540       -1.1234994007        0.0354353814
 N          6.4925253344        0.0069191722        0.0044337622
 C          5.7850389289        1.1321141082       -0.0339949017
 C          6.5139762875        2.3996083877       -0.0799941757
 C          5.8230407409        3.6089857755       -0.0383034387
 C          6.5161216336        4.8029339349       -0.0837404635
 C          7.8995471146        4.8012178030       -0.1726553778
 C          8.5915029054        3.6006835056       -0.2156374609
 C          7.9047427706        2.4033024535       -0.1688678354
 N          4.4553013888        1.1738125416       -0.0334334053
 C          3.8366028651       -0.0027878148       -0.0064013045
 C          2.3738953343       -0.0085654086       -0.0101786031
 C          1.6675124723        1.1920884817       -0.0619826325
 C          0.2883830188        1.1869167802       -0.0621587076
 C         -0.4049938711       -0.0194841447       -0.0097552173
 N         -1.8222282539       -0.0229492938       -0.0041289590
 C         -2.4932322448        0.4247929349        1.1269161991
 C         -1.7806616213        0.8137582123        2.2647950807
 C         -2.4365233733        1.2669021540        3.3910017362
 C         -3.8188376821        1.3344164145        3.4148269012
 C         -4.5314643030        0.9228311359        2.3046937192
 C         -3.8891113217        0.4631644358        1.1645592077
 C         -4.7317538069       -0.0041784582        0.0034301807
 C         -5.7100736078       -1.0719756522        0.4533189086
 C         -5.4321347431       -2.3159163578        0.9744141071
 C         -6.4935025056       -3.1408895478        1.3220773711
 C         -7.8039003342       -2.7223145860        1.1485487058
 C         -8.0879428680       -1.4709003857        0.6253515303
 C         -7.0332444735       -0.6435322705        0.2774238705
 C         -7.0129533424        0.6998477590       -0.2817936996
 C         -8.0423612719        1.5569094879       -0.6333872848
 C         -7.7209537043        2.8018233440       -1.1505285096
 C         -6.3985606242        3.1849360299       -1.3142385965
 C         -5.3623577355        2.3294949511       -0.9641127530
 C         -5.6773969498        1.0918054306       -0.4493191538
 C         -3.9009960531       -0.4954403972       -1.1566693151
 C         -4.5552556101       -0.9585690909       -2.2886000242
 C         -3.8539726791       -1.3893565401       -3.3986800089
 C         -2.4708449216       -1.3378927537       -3.3833710158
 C         -1.8031328042       -0.8813421720       -2.2654823255
 C         -2.5044099396       -0.4727909834       -1.1275037334
 C          0.2976164549       -1.2205227924        0.0405871850
 C          1.6768914045       -1.2146765546        0.0399663154
 N          4.4637409071       -1.1748932644        0.0241666314
 C          7.9193459124       -2.3805890795        0.1968634531
 C          8.6137441488       -3.5736386624        0.2429823303
 H          8.4768665570       -5.7102826003        0.2100052489
 H          6.0204559643       -5.7292821643        0.0087809245
 H          4.7742868842       -3.5883920304       -0.0705551969
 H          4.7468746197        3.5912062285        0.0317204626
 H          5.9793570349        5.7397256838       -0.0497077365
 H          8.4390638109        5.7364059504       -0.2091321710
 H          9.6694068621        3.6018346771       -0.2863462597
 H          8.4256206004        1.4594208750       -0.2032729886
 H          2.2186519188        2.1179098242       -0.1061904703
 H         -0.2660853474        2.1131164754       -0.1008316077
 H         -0.7032695841        0.7531462153        2.2685201300
 H         -1.8611286224        1.5647205991        4.2549329357
 H         -4.3362385219        1.6923780820        4.2913702801
 H         -5.6114161898        0.9521886868        2.3155176592
 H         -4.4109834726       -2.6418188792        1.1102698622
 H         -6.2963860286       -4.1202557349        1.7328571704
 H         -8.6140045018       -3.3813378103        1.4255892382
 H         -9.1103568156       -1.1490672600        0.4926795112
 H         -9.0740215502        1.2629045827       -0.5077918172
 H         -8.5110162115        3.4838042613       -1.4298924976
 H         -6.1720191909        4.1602784707       -1.7194465397
 H         -4.3319510210        2.6280038860       -1.0929362886
 H         -5.6355522844       -0.9744470641       -2.2935567893
 H         -4.3807271417       -1.7497348662       -4.2686631963
 H         -1.9040616492       -1.6514110444       -4.2474446530
 H         -0.7250935685       -0.8327106014       -2.2762572171
 H         -0.2492273798       -2.1511417092        0.0808277439
 H          2.2352033422       -2.1361325316        0.0851509106
 H          8.4329538722       -1.4335319741        0.2498340603
 H          9.6901849209       -3.5679071315        0.3322721322
