  45
        -70.41646852
 C          7.5477485561        1.7112160493       -0.3574733502
 O          7.0644030206        0.5113213056        0.1974601014
 C          5.7241117027        0.2869366889        0.2014604186
 C          5.3249912896       -0.9322586608        0.7863882111
 C          4.0044365178       -1.2747745584        0.8508034689
 C          3.0051933035       -0.4202965112        0.3281964558
 C          1.6469220508       -0.7564571839        0.3688398632
 C          0.6789210182        0.0982716323       -0.1572242096
 C         -0.7247176093       -0.1928937687       -0.1374939282
 N         -1.6523056919        0.7396108752       -0.0561883116
 C         -2.8677013060        0.1164399652       -0.0022855554
 C         -4.0599639641        0.8836459650        0.0792288981
 C         -3.9459588500        2.2675390995        0.3455878967
 C         -5.0622070479        3.0599613750        0.4546462202
 C         -6.3318440604        2.5140707320        0.2904637880
 C         -6.4621587509        1.1606470441       -0.0008528696
 C         -5.3529359553        0.3538208628       -0.1071865161
 C         -2.6589243541       -1.3086520568       -0.0474229872
 C         -3.4627176112       -2.4259271252        0.0353927611
 C         -2.8703686954       -3.7116584615       -0.0982713916
 C         -1.5207725465       -3.8184239260       -0.3459310105
 C         -0.7188660065       -2.6845398958       -0.3967146503
 N         -1.2913042532       -1.4606154824       -0.1729565377
 C          1.0855808775        1.3456706362       -0.6862535001
 C          2.4041754871        1.6853027049       -0.7448493128
 C          3.4076138550        0.8135687649       -0.2535301031
 C          4.7685054278        1.1464667473       -0.3087389634
 H          7.1614542555        2.5839164282        0.1784444530
 H          8.6302716540        1.6710770720       -0.2487689659
 H          7.2925573681        1.7934437789       -1.4186847094
 H          6.0947054180       -1.5775064248        1.1794631445
 H          3.7072858483       -2.2105636057        1.3011040647
 H          1.3605517626       -1.6644220761        0.8784578817
 H         -2.9550720081        2.6726190359        0.4729581111
 H         -4.9562395961        4.1134802331        0.6697256046
 H         -7.2090885216        3.1369876065        0.3781110151
 H         -7.4458252706        0.7389732839       -0.1515410433
 H         -5.4759999155       -0.6819530055       -0.3751591473
 H         -4.5189167496       -2.3425766703        0.2112178274
 H         -3.4931111768       -4.5881507266       -0.0319313683
 H         -1.0604249950       -4.7806832533       -0.5040305659
 H          0.3225760442       -2.7085408721       -0.6600984834
 H          0.3181568286        2.0068341509       -1.0561350307
 H          2.7048552027        2.6317460769       -1.1702621918
 H          5.0428420530        2.0892497183       -0.7561842963
