  45
  -70.1543029576000       0.295381801034715      !
 C          7.5477485561        1.7112160493       -0.3574733502
 O          7.0644030206        0.5113213056        0.1974601014
 C          5.7241117027        0.2869366889        0.2014604186
 C          5.3249912896       -0.9322586608        0.7863882111
 C          4.0044365178       -1.2747745584        0.8508034689
 C          3.0051933035       -0.4202965112        0.3281964558
 C          1.6469220508       -0.7564571839        0.3688398632
 C          0.6789210182        0.0982716323       -0.1572242096
 C         -0.7247176093       -0.1928937687       -0.1374939282
 N         -1.6523056919        0.7396108752       -0.0561883116
 C         -2.8677013060        0.1164399652       -0.0022855554
 C         -4.0599639641        0.8836459650        0.0792288981
 C         -3.9459588500        2.2675390995        0.3455878967
 C         -5.0622070479        3.0599613750        0.4546462202
 C         -6.3318440604        2.5140707320        0.2904637880
 C         -6.4621587509        1.1606470441       -0.0008528696
 C         -5.3529359553        0.3538208628       -0.1071865161
 C         -2.6589243541       -1.3086520568       -0.0474229872
 C         -3.4627176112       -2.4259271252        0.0353927611
 C         -2.8703686954       -3.7116584615       -0.0982713916
 C         -1.5207725465       -3.8184239260       -0.3459310105
 C         -0.7188660065       -2.6845398958       -0.3967146503
 N         -1.2913042532       -1.4606154824       -0.1729565377
 C          1.0855808775        1.3456706362       -0.6862535001
 C          2.4041754871        1.6853027049       -0.7448493128
 C          3.4076138550        0.8135687649       -0.2535301031
 C          4.7685054278        1.1464667473       -0.3087389634
 H          7.1614542555        2.5839164282        0.1784444530
 H          8.6302716540        1.6710770720       -0.2487689659
 H          7.2925573681        1.7934437789       -1.4186847094
 H          6.0947054180       -1.5775064248        1.1794631445
 H          3.7072858483       -2.2105636057        1.3011040647
 H          1.3605517626       -1.6644220761        0.8784578817
 H         -2.9550720081        2.6726190359        0.4729581111
 H         -4.9562395961        4.1134802331        0.6697256046
 H         -7.2090885216        3.1369876065        0.3781110151
 H         -7.4458252706        0.7389732839       -0.1515410433
 H         -5.4759999155       -0.6819530055       -0.3751591473
 H         -4.5189167496       -2.3425766703        0.2112178274
 H         -3.4931111768       -4.5881507266       -0.0319313683
 H         -1.0604249950       -4.7806832533       -0.5040305659
 H          0.3225760442       -2.7085408721       -0.6600984834
 H          0.3181568286        2.0068341509       -1.0561350307
 H          2.7048552027        2.6317460769       -1.1702621918
 H          5.0428420530        2.0892497183       -0.7561842963
  45
  -70.1538242100000       0.177978101890316      !
 C          7.7245985839        0.5602468215       -0.3776348250
 O          6.8683379690        1.2832873493        0.4738361603
 C          5.5337234841        1.0327093959        0.4243116811
 C          4.7473637686        1.8059609240        1.3035614503
 C          3.3915046758        1.6495610174        1.3477286794
 C          2.7409069781        0.7091903783        0.5140591288
 C          1.3553273803        0.5277006741        0.5330845588
 C          0.7380827983       -0.4276906133       -0.2759425741
 C         -0.6886378707       -0.5543215164       -0.2021127924
 N         -1.4807890783        0.4503911053        0.1127988124
 C         -2.7717036753        0.0097336160        0.0154168484
 C         -3.8480480878        0.8866280205        0.3138967635
 C         -3.5610000801        2.2608974475        0.4821472670
 C         -4.5589587427        3.1620360371        0.7608688926
 C         -5.8763784415        2.7340033371        0.8954064197
 C         -6.1738833397        1.3825377549        0.7589967236
 C         -5.1850276152        0.4694600737        0.4742622336
 C         -2.7586073912       -1.3704420976       -0.3978388019
 C         -3.7127147626       -2.3123506099       -0.7219520684
 C         -3.2942925305       -3.6317424108       -1.0477981916
 C         -1.9586633065       -3.9568946428       -0.9940898772
 C         -1.0062975540       -2.9884206079       -0.6960432797
 N         -1.4198005292       -1.7007735648       -0.4813719467
 C          1.5305018543       -1.1729545742       -1.1763489582
 C          2.8836330369       -0.9955371371       -1.2229872528
 C          3.5354180138       -0.0712987508       -0.3716539080
 C          4.9262816899        0.1051133771       -0.4016442018
 H          7.6861241283       -0.5134272727       -0.1668392115
 H          7.4817105474        0.7328614480       -1.4310351820
 H          8.7271147856        0.9320652329       -0.1727929101
 H          5.2539417362        2.5192496437        1.9343058128
 H          2.7945834816        2.2453238051        2.0217739142
 H          0.7409799901        1.1154526417        1.1968292852
 H         -2.5356512912        2.5747263825        0.3713308615
 H         -4.3220880824        4.2098198854        0.8768482947
 H         -6.6606374096        3.4427857373        1.1140440100
 H         -7.1927501140        1.0445630088        0.8845196515
 H         -5.4329243221       -0.5767565604        0.4133929168
 H         -4.7572945222       -2.0642145231       -0.7445721671
 H         -4.0350620293       -4.3707940009       -1.3042457190
 H         -1.6251601073       -4.9650129786       -1.1819764938
 H          0.0387873468       -3.2060467169       -0.5748865711
 H          1.0579203619       -1.8448180583       -1.8772706057
 H          3.4783105787       -1.5557124411       -1.9307043126
 H          5.5011957091       -0.4994893907       -1.0858231146
  45
  -70.1537700942000       0.168072504252801      !
 C          7.6847600413        0.5815200703        0.6165854601
 O          6.8011412834        1.5286292131        0.0663032211
 C          5.4829549720        1.2137077885       -0.0327160638
 C          4.6632944241        2.2366774635       -0.5522994195
 C          3.3167030818        2.0516475469       -0.6838783371
 C          2.7108670087        0.8310903969       -0.3010583427
 C          1.3328760367        0.6254538982       -0.3878575341
 C          0.7507220106       -0.5897987379       -0.0139905128
 C         -0.6773896912       -0.6791074063       -0.0828583534
 N         -1.4444003411        0.3903778456        0.0116585708
 C         -2.7445982301       -0.0237959720        0.0018345031
 C         -3.7932993951        0.9316168831        0.0898537360
 C         -3.4531460768        2.2575499572        0.4411877670
 C         -4.4181598929        3.2279539179        0.5542809439
 C         -5.7535755771        2.9228799914        0.3098480162
 C         -6.1032857532        1.6298984561       -0.0627778141
 C         -5.1474358905        0.6459586666       -0.1730036796
 C         -2.7704842467       -1.4593020065       -0.1018716676
 C         -3.7529218797       -2.4280961571       -0.0883507351
 C         -3.3787007380       -3.7881453891       -0.2570769824
 C         -2.0581655487       -4.1106846241       -0.4718610396
 C         -1.0767161394       -3.1256716569       -0.4552398363
 N         -1.4429959655       -1.8322581113       -0.1963881640
 C          1.5818531134       -1.6118456741        0.4936324846
 C          2.9306758099       -1.4231667969        0.5996201749
 C          3.5413699611       -0.2078203245        0.2048694520
 C          4.9215608686        0.0027537531        0.3318824140
 H          7.7304778576       -0.3265143038        0.0070300596
 H          8.6626064344        1.0602099045        0.6240831017
 H          7.4015145079        0.3186491130        1.6408712045
 H          5.1361339522        3.1639178478       -0.8351827135
 H          2.6917321524        2.8396605616       -1.0758201527
 H          0.6907226610        1.4088385345       -0.7573965135
 H         -2.4139984492        2.4742293008        0.6292519171
 H         -4.1407261347        4.2335910990        0.8356291754
 H         -6.5121702570        3.6855550394        0.4001778165
 H         -7.1372356181        1.3962868417       -0.2736209836
 H         -5.4352441083       -0.3383667576       -0.5028290873
 H         -4.7852932323       -2.1711159649        0.0605649158
 H         -4.1402141689       -4.5501520599       -0.2434554933
 H         -1.7597196156       -5.1303202299       -0.6563885135
 H         -0.0451424683       -3.3193054410       -0.6845670036
 H          1.1459051772       -2.5276852492        0.8632275300
 H          3.5535232919       -2.2036064072        1.0133337754
 H          5.5264024655       -0.8009792110        0.7228664875
  45
  -70.1536890952000       0.154266671080807      !
 C          7.6256380375        2.0871259137       -0.1748674366
 O          6.9097352847        0.9377725099        0.2104496770
 C          5.5579886430        0.9229197495        0.0635346754
 C          4.8017603129        1.9782762346       -0.4647538840
 C          3.4367593834        1.8626746892       -0.5718808778
 C          2.7615070408        0.6936768195       -0.1575425575
 C          1.3756389446        0.5576679088       -0.2553538954
 C          0.7289691783       -0.6232899294        0.1359847179
 C         -0.6923998014       -0.6769086159       -0.0010941340
 N         -1.4532020477        0.4028537109        0.0350259928
 C         -2.7532038903       -0.0011419049       -0.0077518912
 C         -3.8039873625        0.9559409577        0.0867150624
 C         -3.4815740581        2.3185424629       -0.0887145483
 C         -4.4520041686        3.2886255771       -0.0162155368
 C         -5.7734302874        2.9419268689        0.2454584112
 C         -6.1035339630        1.6075659989        0.4497699346
 C         -5.1412683557        0.6256764962        0.3748758796
 C         -2.7904731712       -1.4308005970       -0.1470840449
 C         -3.7845656946       -2.3713363829       -0.3475850684
 C         -3.4184855830       -3.7223601148       -0.5537015044
 C         -2.0854392468       -4.0708039394       -0.6006967497
 C         -1.0984394000       -3.1125050995       -0.4119866978
 N         -1.4667084666       -1.8241263735       -0.1448728891
 C          1.4991466756       -1.6614344062        0.7058221141
 C          2.8532258136       -1.5399961814        0.8270695110
 C          3.5340350898       -0.3772292604        0.3816614508
 C          4.9169249742       -0.2414444459        0.4805319865
 H          7.3118160094        2.9663885343        0.3966294492
 H          8.6696191307        1.8695314248        0.0446341897
 H          7.5159914277        2.2893799616       -1.2450969626
 H          5.2810028264        2.8875452304       -0.7919576528
 H          2.8579259216        2.6784385983       -0.9783812559
 H          0.7781215435        1.3595233940       -0.6583264941
 H         -2.4519199535        2.5687718936       -0.2872556002
 H         -4.1889882350        4.3263418952       -0.1623044752
 H         -6.5359475552        3.7040686740        0.3014383183
 H         -7.1251917984        1.3383228550        0.6773843789
 H         -5.4110736511       -0.3972272200        0.5791567271
 H         -4.8189952389       -2.0841861170       -0.3852092980
 H         -4.1876914312       -4.4623227951       -0.7013400182
 H         -1.7849587047       -5.0873821106       -0.7973411978
 H         -0.0504284248       -3.3230416567       -0.5185792013
 H          1.0083910602       -2.5338697751        1.1101855644
 H          3.4308085573       -2.3293611688        1.2853509059
 H          5.5160436223       -1.0414823025        0.8865917654
  45
  -70.1530493465000       7.839059520834286E-002 !
 C          7.5320337515        1.7211219289        0.4164114999
 O          7.0583314306        0.5330465543       -0.1716555972
 C          5.7189632423        0.3043509534       -0.1933021435
 C          5.3298643450       -0.9059989278       -0.8033117946
 C          4.0114666473       -1.2525592079       -0.8854100820
 C          3.0040734312       -0.4120943318       -0.3557687328
 C          1.6476269629       -0.7549403573       -0.4100918933
 C          0.6728403801        0.0831324147        0.1287617913
 C         -0.7299641086       -0.2146689637        0.1064413919
 N         -1.6584565389        0.7166297506        0.0435198983
 C         -2.8756779952        0.0939889757       -0.0224773053
 C         -4.0570213780        0.8761289830       -0.1073606383
 C         -3.9196057370        2.2847853447       -0.0731182492
 C         -5.0171625778        3.1066038062       -0.1368085698
 C         -6.2959100931        2.5665246092       -0.2396078373
 C         -6.4516898220        1.1853899192       -0.2852822963
 C         -5.3605998205        0.3501514207       -0.2229074274
 C         -2.6651207911       -1.3323942796        0.0311165216
 C         -3.4704773481       -2.4515305432        0.0339859578
 C         -2.8754581122       -3.7336521232        0.1872954374
 C         -1.5161036133       -3.8369783738        0.3723274366
 C         -0.7139634361       -2.7027499797        0.3570860851
 N         -1.2945171194       -1.4832208469        0.1316013804
 C          1.0700368649        1.3232402913        0.6817737037
 C          2.3859233524        1.6708084871        0.7505724586
 C          3.3964985036        0.8133174167        0.2500249223
 C          4.7554989278        1.1513796670        0.3219235754
 H          7.2629924289        1.7785256674        1.4759006016
 H          8.6158741230        1.6854546736        0.3208023207
 H          7.1508215142        2.6051954306       -0.1043569903
 H          6.1057499728       -1.5418051088       -1.1996104514
 H          3.7223416767       -2.1820635207       -1.3536322411
 H          1.3697484880       -1.6555624622       -0.9372236925
 H         -2.9225559169        2.6864853346        0.0055167979
 H         -4.8898630198        4.1790832159       -0.1053153487
 H         -7.1597755072        3.2121060036       -0.2857966742
 H         -7.4426723728        0.7624871483       -0.3706282714
 H         -5.5131691496       -0.7139915494       -0.2679046189
 H         -4.5370645645       -2.3770392807       -0.0617240468
 H         -3.5034797963       -4.6088732854        0.1850996564
 H         -1.0491932538       -4.7948840859        0.5369485274
 H          0.3375695350       -2.7219138186        0.5763296569
 H          0.2972804716        1.9726641618        1.0609142748
 H          2.6781130987        2.6119633560        1.1932621330
 H          5.0216862883        2.0878755813        0.7871379289
  45
  -70.1529415911000       6.994279912696211E-002 !
 C          7.5672335772        1.6031335577       -0.4416767791
 O          7.0588706324        0.4616967522        0.2061711230
 C          5.7139583279        0.2673942568        0.2277550055
 C          5.2930790717       -0.9110544461        0.8781625542
 C          3.9672069642       -1.2278537918        0.9555229916
 C          2.9844909739       -0.3861508264        0.3837887333
 C          1.6222541932       -0.7061555608        0.4207137326
 C          0.6712708292        0.1338884525       -0.1548359345
 C         -0.7327302753       -0.1632006088       -0.1480954382
 N         -1.6724948790        0.7547066612       -0.0734185337
 C         -2.8810259645        0.1130143423       -0.0136626243
 C         -4.0752389469        0.8723528770        0.0903784977
 C         -3.9586346998        2.2782129832        0.2082957247
 C         -5.0707709380        3.0737010176        0.3300986427
 C         -6.3432998264        2.5095940071        0.3348417215
 C         -6.4797891507        1.1316764185        0.2054504906
 C         -5.3743275577        0.3225278109        0.0837166824
 C         -2.6500719140       -1.3104718074       -0.0724129860
 C         -3.4325785469       -2.4446668016       -0.0393990740
 C         -2.8151109116       -3.7171608293       -0.1926640054
 C         -1.4590656707       -3.7961688571       -0.4121544575
 C         -0.6784081275       -2.6474339718       -0.4221517166
 N         -1.2786068976       -1.4386630285       -0.1866830242
 C          1.0946248009        1.3571564991       -0.7231845455
 C          2.4183174425        1.6790878123       -0.7818706561
 C          3.4069208284        0.8141859470       -0.2509879849
 C          4.7743465342        1.1189089587       -0.3224981744
 H          7.3109082326        1.6055606089       -1.5060680516
 H          7.2022758479        2.5245907777        0.0226764039
 H          8.6488658522        1.5475447903       -0.3309146312
 H          6.0511730612       -1.5479858373        1.3058319831
 H          3.6524919448       -2.1347937468        1.4506710454
 H          1.3180053276       -1.5902462397        0.9614520680
 H         -2.9659759026        2.6982276051        0.2071776740
 H         -4.9597975695        4.1443729247        0.4236279786
 H         -7.2176304417        3.1349204541        0.4333433525
 H         -7.4667406360        0.6911778239        0.1979806825
 H         -5.5114834115       -0.7381218190       -0.0348131391
 H         -4.4958773138       -2.3909894575        0.0986593073
 H         -3.4250463514       -4.6045574423       -0.1636148271
 H         -0.9784688668       -4.7463890033       -0.5821998155
 H          0.3686539617       -2.6447838672       -0.6639573218
 H          0.3388350721        2.0118472159       -1.1271541578
 H          2.7340226970        2.6044861296       -1.2414658546
 H          5.0655421776        2.0337761768       -0.8149551075
  45
  -70.1527309436000       5.596752740605528E-002 !
 C          7.4580144244        1.9146692300        0.1362635731
 O          7.0066619668        0.6833764292       -0.3757513080
 C          5.6850258039        0.3823615659       -0.2770451841
 C          5.3056167419       -0.8453813369       -0.8577427291
 C          4.0013518687       -1.2500896917       -0.8421331559
 C          2.9985490118       -0.4513530074       -0.2437515245
 C          1.6497253161       -0.8285052921       -0.2451666533
 C          0.6765930400       -0.0111848656        0.3261106029
 C         -0.7286437128       -0.2931780941        0.2683198826
 N         -1.6332067880        0.6611544787        0.2000519109
 C         -2.8569264242        0.0711504337        0.0393831479
 C         -4.0097422225        0.8878652513       -0.0960401846
 C         -3.8221663099        2.2910073002       -0.1164808363
 C         -4.8856473936        3.1467118865       -0.2596171648
 C         -6.1787943921        2.6469667354       -0.3839684831
 C         -6.3852586932        1.2719481136       -0.3558596409
 C         -5.3285416600        0.4026287537       -0.2143405018
 C         -2.6782544878       -1.3606430553        0.0314214545
 C         -3.4996332035       -2.4591693979       -0.1020498205
 C         -2.9373456886       -3.7614188668        0.0061764768
 C         -1.5969437207       -3.9054837571        0.2813391881
 C         -0.7757606688       -2.7905944536        0.3953966959
 N         -1.3192089528       -1.5472044416        0.2072915459
 C          1.0699985652        1.2181711359        0.9054777351
 C          2.3795014932        1.5932095074        0.9329249441
 C          3.3843681109        0.7803106643        0.3533218124
 C          4.7292279458        1.1766345883        0.3279278054
 H          7.3011601292        1.9815413304        1.2174594323
 H          8.5251275282        1.9494418263       -0.0762738478
 H          6.9622847253        2.7573818500       -0.3561416717
 H          6.0761691817       -1.4439116481       -1.3174316005
 H          3.7188269662       -2.1891178956       -1.2951492608
 H          1.3732865587       -1.7313031558       -0.7693345307
 H         -2.8137557628        2.6602005439       -0.0241494000
 H         -4.7196401123        4.2142167883       -0.2775940319
 H         -7.0151208659        3.3195944183       -0.4993995173
 H         -7.3888880458        0.8814074393       -0.4469210805
 H         -5.5200583569       -0.6559800375       -0.1823263048
 H         -4.5526405056       -2.3539927300       -0.2832417605
 H         -3.5773522740       -4.6211748965       -0.1017285547
 H         -1.1602598743       -4.8822241080        0.4161017832
 H          0.2586962641       -2.8447641081        0.6809423858
 H          0.2986606884        1.8420996283        1.3278314421
 H          2.6697034468        2.5283562695        1.3894495448
 H          4.9882767110        2.1194714963        0.7841711047
