  99
       -149.12088833
 C          1.1492437362       -2.7504044776       -1.5893935351
 C          0.0700053415       -1.7074014672       -1.2701437364
 C         -1.2707069738       -2.3409085287       -1.5648464861
 C         -1.9948839785       -1.9762775650       -2.6907919247
 C         -3.1892613845       -2.6078359767       -2.9916899676
 C         -3.6656708963       -3.6123509560       -2.1689459315
 C         -2.9493341427       -3.9753132154       -1.0394307552
 C         -1.7548712806       -3.3478697702       -0.7373641229
 N          0.1445999919       -1.3386002549        0.1316965274
 C         -1.0031716997       -0.9628638202        0.8259617301
 C         -1.9903271125       -0.1936885926        0.2387286542
 C         -3.1099102651        0.1959066720        0.9979595227
 N         -4.1452035668        0.9320999455        0.3564408415
 C         -4.0779406740        2.3060413034        0.3454046908
 C         -3.0067129395        2.9458546866        0.9871226681
 C         -2.9096452101        4.3180750921        0.9998985866
 C         -3.8793922745        5.0845776387        0.3700086910
 C         -4.9360959101        4.4579530735       -0.2664756421
 C         -5.0617559125        3.0767438766       -0.2954164921
 C         -6.2367149793        2.4408652656       -1.0076025498
 C         -7.5392267784        2.9459317423       -0.3588808731
 C         -6.1904427078        2.8472650297       -2.4929177811
 C         -6.2032161503        0.9295006296       -0.9182324225
 C         -7.2143558381        0.1820640881       -1.5042717784
 C         -7.2344456614       -1.1996218804       -1.4387298781
 C         -6.2152483256       -1.8669483060       -0.7751812130
 C         -5.1918798854       -1.1546325920       -0.1947738271
 C         -5.1723617814        0.2464395958       -0.2527188417
 C         -3.2060412146       -0.1349931319        2.3503844351
 C         -2.2167825767       -0.8885652217        2.9413673060
 C         -1.1287979033       -1.3260324324        2.1771136496
 S          0.1452630398       -2.3760292992        2.7918987844
 O          0.1873465028       -2.3597676950        4.2375961387
 O          0.0319368877       -3.6882632636        2.1717245451
 C          1.5143553703       -1.5112434281        2.1061666742
 C          2.6906294621       -1.2220642490        2.8137741277
 C          3.7368068610       -0.6020616424        2.1741704738
 C          3.6169700883       -0.2432020547        0.8256560389
 N          4.7074884700        0.3397722944        0.1303538216
 C          5.0562895155        1.6462180900        0.3902831251
 C          4.3270936433        2.3797327636        1.3403605528
 C          4.6663733317        3.6774441206        1.6431010637
 C          5.7359534205        4.2814494105        0.9968645618
 C          6.4377302486        3.5736750980        0.0364311723
 C          6.1192749723        2.2643024750       -0.2909874235
 C          6.8973089142        1.5512327577       -1.3758456748
 C          6.7274045620        2.3321501044       -2.6929684034
 C          8.3836405372        1.5051726318       -0.9737636992
 C          6.4117497145        0.1328734273       -1.5822725338
 C          7.0172759133       -0.6703821903       -2.5373733195
 C          6.6365675073       -1.9860135134       -2.7381940794
 C          5.6372321996       -2.5347302398       -1.9464076219
 C          5.0171090629       -1.7623503714       -0.9926063686
 C          5.3725827221       -0.4152030471       -0.8118760524
 C          2.4122938781       -0.4774793122        0.1277220118
 C          1.3683354163       -1.1224078959        0.7594847856
 H          1.1039070775       -3.5422637155       -0.8468081883
 H          2.1445658865       -2.3190688525       -1.5841205962
 H          0.9583782834       -3.1770822911       -2.5714070687
 H          0.2094174237       -0.8288334718       -1.9194440550
 H         -1.6219285176       -1.1952343409       -3.3403612945
 H         -3.7456369593       -2.3167162864       -3.8704319890
 H         -4.5906248111       -4.1134490919       -2.4118185664
 H         -3.3181789816       -4.7573397063       -0.3923444055
 H         -1.2003689911       -3.6317700352        0.1447039814
 H         -1.9273399564        0.1131089785       -0.7918584109
 H         -2.2576727971        2.3436678542        1.4755469918
 H         -2.0796061760        4.7918935653        1.5013994118
 H         -3.8135871628        6.1613853709        0.3746112942
 H         -5.6803206077        5.0699814018       -0.7528058015
 H         -7.5660504318        2.6575269081        0.6900722382
 H         -7.6076967721        4.0282449505       -0.4193672302
 H         -8.4081395649        2.5219859320       -0.8537027311
 H         -6.2261522450        3.9276575047       -2.5997731334
 H         -7.0298357743        2.4224803579       -3.0357991459
 H         -5.2693264703        2.4866040107       -2.9467395897
 H         -8.0153967811        0.6853065411       -2.0238973830
 H         -8.0401121899       -1.7499017701       -1.8993878042
 H         -6.2201193433       -2.9435115381       -0.7081192611
 H         -4.3928901093       -1.6711420896        0.3106013033
 H         -4.0684498821        0.1873437268        2.9144862410
 H         -2.2616216657       -1.1805414242        3.9770862330
 H          2.7496299461       -1.5257140271        3.8453775146
 H          4.6645239922       -0.4062407592        2.6908572306
 H          3.4893037579        1.9117894811        1.8308882655
 H          4.0965588641        4.2216503927        2.3805806715
 H          6.0136632504        5.2974286179        1.2299845641
 H          7.2543110560        4.0647334289       -0.4705947205
 H          7.2897736453        1.8632824727       -3.4952844467
 H          7.0767405044        3.3549426751       -2.5841888932
 H          5.6768252923        2.3562517518       -2.9769375774
 H          8.7799510914        2.5076395099       -0.8402313003
 H          8.4969723699        0.9624904168       -0.0372852237
 H          8.9749122614        1.0036190998       -1.7344291756
 H          7.8126955157       -0.2666801901       -3.1444627284
 H          7.1247434816       -2.5812275382       -3.4938208785
 H          5.3459102794       -3.5665735202       -2.0715194097
 H          4.2588726043       -2.1930879982       -0.3600911685
 H          2.3282245340       -0.1338551687       -0.8908854223
