99
 energy: -149.182222234252 gnorm: 0.000053302560 xtb: 6.7.1 (edcfbbe)
C            1.11143320469499       -2.75541020735390       -1.73436463264706
C            0.03375828307768       -1.73083609445953       -1.35559311761606
C           -1.31090525647618       -2.36000883235608       -1.64689794397837
C           -2.04661793821352       -1.97404700201875       -2.75921339015062
C           -3.24446703027599       -2.59818812594242       -3.06173665441330
C           -3.71658702335169       -3.61722176783457       -2.25392452806799
C           -2.98825470241447       -4.00604267803436       -1.14099057790482
C           -1.78963233700638       -3.38541407471684       -0.83874780916659
N            0.12910790411739       -1.39952720638322        0.05834247128040
C           -1.00789264643802       -1.01354324957573        0.77125983132353
C           -1.98733386922442       -0.21754149848033        0.21043585243540
C           -3.09274340303502        0.18402108000980        0.99060697313237
N           -4.12768996217600        0.94226955489640        0.37176289245910
C           -4.02687578443811        2.31614642897853        0.34373298090950
C           -2.91544799267789        2.93540417469182        0.93564530789118
C           -2.78490974944516        4.30542920566424        0.92981951997241
C           -3.76266818137152        5.08882529074255        0.33358079124485
C           -4.85960016332577        4.48307217515859       -0.25215277280765
C           -5.01883868568241        3.10392900338927       -0.26341147704997
C           -6.23987774106683        2.49279799951822       -0.91691201691074
C           -7.49956519528970        3.02830825697808       -0.20763567978181
C           -6.25835082995657        2.89539377485459       -2.40496875654474
C           -6.23511169142749        0.98165516939307       -0.82241182139787
C           -7.28490054343214        0.25396812835593       -1.36635714733667
C           -7.33126159475573       -1.12653681210487       -1.29726625445536
C           -6.30129383183271       -1.81539524433538       -0.67340106918650
C           -5.24289650592355       -1.12290963560662       -0.13215663769675
C           -5.19489146720744        0.27752771049063       -0.19374114339921
C           -3.17549797487582       -0.16215063202869        2.34082466663517
C           -2.19268998385062       -0.93976254995054        2.90883593607573
C           -1.12406575735856       -1.39395666687931        2.12061506060916
S            0.14321197005776       -2.44520134716164        2.71025167442581
O            0.20414053250716       -2.42837307746425        4.16492450803494
O            0.00302032147308       -3.77832384623698        2.11841743065029
C            1.51729520407137       -1.61690171626978        2.01801965473558
C            2.69581686039555       -1.33770599076439        2.72985920875292
C            3.73675098047863       -0.69833065143791        2.10027981870412
C            3.60835486772799       -0.30778573794911        0.76297245674596
N            4.69544076472258        0.31263398535037        0.08580218951352
C            4.94753766359546        1.65086489497451        0.30167467972190
C            4.10822324085797        2.37931198851308        1.15872478960124
C            4.34218482619389        3.71160105976651        1.41160397115854
C            5.41785918276192        4.34942743538551        0.81052684306462
C            6.23640350820672        3.64090075724954       -0.05062940993914
C            6.02393784783524        2.29744762992756       -0.32837779617728
C            6.93642896703667        1.57748364518471       -1.29822881648250
C            6.85144398535476        2.28116987335977       -2.66732001467154
C            8.37993356668191        1.63667456601502       -0.76052283117317
C            6.54554004708707        0.12508474163096       -1.46976929180385
C            7.27490259152757       -0.68762721188998       -2.32750624603768
C            6.97395380523492       -2.02638323815708       -2.50147052680946
C            5.92295141677561       -2.58866862963784       -1.79146925026859
C            5.18267558580495       -1.80828402222319       -0.93292774611081
C            5.46946994433502       -0.44429927357591       -0.76961305111938
C            2.40072689709647       -0.52968208364012        0.06325105664404
C            1.36192439833412       -1.19596391207849        0.68174077926662
H            1.08176686671168       -3.58463992864819       -1.03085819530391
H            2.10633678318757       -2.32212339578077       -1.72067651014976
H            0.90782381184674       -3.13501554850161       -2.73290969570016
H            0.15661292934774       -0.82999066571712       -1.97855778028554
H           -1.67878786964947       -1.18074455663128       -3.39553965915082
H           -3.80937629653267       -2.28849458799360       -3.92874777575718
H           -4.64785364618186       -4.10918716012417       -2.49193001240550
H           -3.35009834907255       -4.80067247869331       -0.50409611288054
H           -1.22755968018735       -3.69283481334983        0.03256962489021
H           -1.93015811518048        0.10224488988725       -0.81681160560466
H           -2.16052174241403        2.32044435405110        1.39989245998885
H           -1.92268834944157        4.76310287538093        1.39082205411375
H           -3.67078488139159        6.16413905655408        0.32532184267511
H           -5.60961230719567        5.10837153594282       -0.71069594435085
H           -7.48182059081469        2.74596686822661        0.84337481469735
H           -7.54761247747487        4.11119551719933       -0.27230410506742
H           -8.39874428936918        2.61893873582488       -0.65809719170585
H           -6.27298189595229        3.97595964161753       -2.51110518285097
H           -7.13519142489637        2.49132548831172       -2.90176778200393
H           -5.37101319989640        2.51096675352266       -2.90414452791268
H           -8.09396561525806        0.77304274448929       -1.85615220958632
H           -8.16427999268629       -1.66162782284145       -1.72689622791587
H           -6.32208171290187       -2.89209248520671       -0.60863688927063
H           -4.43506827753115       -1.65678038011920        0.34279714027475
H           -4.02237306784178        0.16790674950403        2.92400275981955
H           -2.22402655982397       -1.24291571211060        3.94324156694721
H            2.75496265102958       -1.66178212080156        3.75664414418466
H            4.66245966725713       -0.50698804628797        2.62243184910805
H            3.27051446566767        1.88008790082309        1.61960666317499
H            3.68637561124952        4.25343321077327        2.07623492565053
H            5.61291074948607        5.39274044177756        1.00608735907912
H            7.06133422223387        4.15609065935232       -0.51749020371220
H            7.50955059059661        1.80386130953758       -3.38711428947938
H            7.13849854643619        3.32490156159169       -2.58206761276843
H            5.83242967367268        2.23338546925540       -3.04654247604089
H            8.70294894359028        2.66589769387162       -0.63620047971993
H            8.43704137767568        1.13818522376141        0.20538902547505
H            9.06582765480030        1.14347392811551       -1.44279622686342
H            8.10451274321359       -0.27080598823966       -2.87683531705660
H            7.55937229907362       -2.62902890884055       -3.17887686678410
H            5.68230461186016       -3.63498725301345       -1.90471809863750
H            4.37465820334063       -2.24640314609847       -0.36843281812623
H            2.30809150540287       -0.15931945954429       -0.94540066600177
