99
 energy: -149.273324419971 gnorm: 0.000111052581 xtb: 6.7.1 (edcfbbe)
C            0.58442544452055        1.59678265847391        1.97864764562868
C           -0.27865166879204        1.95256896167421        0.77135407084978
C           -0.07801644542473        3.38516291365130        0.31914816560375
C           -1.17477127161336        4.22700693369741        0.19171678699590
C           -1.01933825433470        5.52588812732768       -0.25732655908433
C            0.23729720751425        5.99769552504576       -0.59233581510839
C            1.33594008465885        5.16473286914128       -0.47303754215676
C            1.17878201864950        3.86821579957024       -0.01966137027629
N           -0.12244907609394        1.06192171497951       -0.39786835823686
C           -1.29572331982617        0.76519072902560       -1.09193280573115
C           -2.35382301879920        0.14595784327982       -0.41673696605800
C           -3.50928441242656       -0.21868586404900       -1.08984779563010
N           -4.57480001855050       -0.81980592252437       -0.37143367096502
C           -5.42135919292701       -0.00949504175109        0.37336899034743
C           -5.20133763550305        1.37064739313344        0.41302728151523
C           -6.01850437812359        2.19996674768663        1.15299099320351
C           -7.07911433861248        1.66576474501023        1.86246343171655
C           -7.31157976245497        0.30375284645759        1.80635138716422
C           -6.50505883736868       -0.55417727749941        1.07004106658242
C           -6.83374624617567       -2.03514621415373        1.02781086053210
C           -6.79059996613903       -2.59521046314757        2.46209680882868
C           -8.24332876382883       -2.20639797324353        0.43100841698070
C           -5.84491441354331       -2.81007712771734        0.17643006454250
C           -5.99189639560865       -4.18404279832088        0.03741170227361
C           -5.10912563301941       -4.94652543306020       -0.70528244320992
C           -4.03552926472109       -4.32950052946522       -1.32210682219348
C           -3.86663138094597       -2.96551845249929       -1.20266901940931
C           -4.77064622025513       -2.19083027446700       -0.47026059135477
C           -3.63045576975682       -0.00403043144372       -2.46343972523650
C           -2.59209260829001        0.60266330322732       -3.14093012141696
C           -1.45642667061239        0.99461277541847       -2.45699045511924
S           -0.16672809969057        1.90009774177099       -3.27405960291659
O           -0.10096261175612        1.54525003408826       -4.67427721871318
O           -0.33399533317219        3.30794739777690       -2.98175389082257
C            1.25464432821566        1.27461988324348       -2.41444473608039
C            2.44552145174064        1.08302582823602       -3.08910954377906
C            3.54825763721187        0.59215682391208       -2.41934207641910
C            3.42353477133879        0.26004021320158       -1.07073603640847
N            4.53296510727202       -0.27721488154302       -0.36589932616581
C            4.85604959268693       -1.61748234546337       -0.52991229714311
C            4.06909039685994       -2.42152895842762       -1.35924976428158
C            4.36868880905928       -3.75510290058132       -1.54635855184473
C            5.45862024736256       -4.31234795727547       -0.90204116981072
C            6.22619183689973       -3.52254412427168       -0.06574324486425
C            5.94708770959653       -2.17813970610867        0.14216827731564
C            6.81497133305572       -1.37389940987821        1.09290088067772
C            6.73116716662320       -2.01089823483374        2.49273427767542
C            8.26760530747439       -1.40108802527740        0.58148509304271
C            6.36315808365035        0.07171512565595        1.18534978280156
C            7.05322483843279        0.95481657956617        2.00544006609746
C            6.70337795539235        2.28882628879860        2.11020680767243
C            5.64379008061450        2.77110941327424        1.36304345019083
C            4.94212523406835        1.91484104963235        0.54024926489730
C            5.27532317687020        0.56027321191159        0.45476442847746
C            2.21615722895233        0.42433996596539       -0.40804935191200
C            1.10238983475503        0.96090623064491       -1.06327996359342
H            0.48195986113439        0.54245983644986        2.22298458182749
H            0.23257725991343        2.18186776885701        2.82569340630957
H            1.63025765783671        1.83873224155073        1.82236628110302
H           -1.32402876256359        1.84479279859738        1.07287548173072
H           -2.16119710911251        3.86339592923952        0.44470980728919
H           -1.88275300175971        6.16813962146865       -0.35370300545017
H            0.35968514647563        7.00881737732691       -0.95213822319956
H            2.31957807531743        5.52427035714652       -0.73911668291625
H            2.04386108958944        3.22827506175296        0.06301803600767
H           -2.27452995673559       -0.06977705370499        0.63801757225969
H           -4.38752609289325        1.79646556147130       -0.15381526779451
H           -5.82813378357377        3.26318196505819        1.16846759344082
H           -7.72564993573270        2.30319545325787        2.44659007562283
H           -8.15158691949299       -0.09713441702747        2.35282016694508
H           -7.05312001662277       -3.64924750264609        2.47485719892339
H           -5.78832618059969       -2.48555251537388        2.87257695797628
H           -7.48552513970121       -2.06455088164509        3.10677952323910
H           -8.51895130196901       -3.25619773356594        0.38333835470897
H           -8.27186098154407       -1.79774873616756       -0.57781839235706
H           -8.98445444737826       -1.68677563235748        1.03180555261589
H           -6.81845953304734       -4.68058457375380        0.52237253575552
H           -5.25508355044942       -6.01256625215071       -0.79415349727612
H           -3.32591348546635       -4.90730669516541       -1.89592453093873
H           -3.02279912735430       -2.49126135299090       -1.68001144507094
H           -4.52956890285101       -0.30591490086951       -2.97676275307941
H           -2.64144375885483        0.80176810224092       -4.20009251985267
H            2.48010173783731        1.33275300661415       -4.13803915335372
H            4.49003054614804        0.44924307410537       -2.92507097420880
H            3.21344599576709       -1.99522231237688       -1.86016698486712
H            3.74785429526197       -4.35573221848539       -2.19486463734999
H            5.70654187210040       -5.35371110308710       -1.04252982962206
H            7.06661453034263       -3.97411310372994        0.43906074496282
H            7.05866507856095       -3.04640431270407        2.46715194876933
H            5.70377992213974       -1.98418475337770        2.85163531888015
H            7.35634524700086       -1.47364444049289        3.20040038705153
H            8.63510695020041       -2.42091529267560        0.51100370245440
H            8.32174410203888       -0.94746095883309       -0.40681582257987
H            8.92405648239298       -0.84897264590264        1.24816072751355
H            7.89232338379816        0.59691678756338        2.58236300060008
H            7.26011651294767        2.94601374157908        2.76109076408487
H            5.36286658269121        3.81285786242688        1.41546143263746
H            4.13018604327663        2.29943408548655       -0.05755708696374
H            2.14372073986505        0.10359842946011        0.61687848844309
