99
 energy: -149.174420998027 gnorm: 0.000054975865 xtb: 6.7.1 (edcfbbe)
C            1.22484282252225        2.34192083042130       -2.06453917292030
C            0.14380980074482        1.72182070353392       -1.16927819234407
C           -1.19378317552015        2.22225351770528       -1.66830560887217
C           -1.87993240588213        3.20988768756477       -0.97465584148156
C           -3.07939489935847        3.70421929007482       -1.45695017176370
C           -3.60378050455723        3.21413427744715       -2.64003338002075
C           -2.91988479861756        2.23405940590793       -3.34150247782095
C           -1.71825445227597        1.74311918193646       -2.86373759060329
N            0.19739852206568        0.26758058642401       -1.24889251445548
C           -0.95516093023538       -0.49950408723171       -1.07994524325312
C           -1.93738581814349       -0.15476454232673       -0.17664989226628
C           -3.08676041103202       -0.97000184470944        0.00022497245099
N           -4.07708644968695       -0.60575482358221        0.88924832680580
C           -5.24546782169366       -1.35073876330556        1.10275707564658
C           -5.19558577459461       -2.71654566623006        1.38909262296187
C           -6.35893843947089       -3.40897116155306        1.65157179415125
C           -7.57663208611810       -2.74368072807383        1.64699968628924
C           -7.62217106165274       -1.37686508605754        1.40869489318347
C           -6.47003510844504       -0.65947955561962        1.14253078972115
C           -6.42224253237479        0.83452937459828        0.88166899673395
C           -6.15864814417814        1.07738133413792       -0.61943823964515
C           -7.73006304555026        1.53580228235812        1.25128379634457
C           -5.24167655380740        1.34314709711725        1.68724924097565
C           -5.25286712157793        2.49084195574729        2.45858449410362
C           -4.13915446607246        2.87082432948976        3.19538755387153
C           -3.00499991602514        2.07219426745584        3.20085461904749
C           -2.96682380858684        0.92472999418083        2.43649462020900
C           -4.06294094616345        0.57638232817589        1.64413190406795
C           -3.22680002080856       -2.11833225769823       -0.81091363685159
C           -2.24377816447644       -2.47086296238397       -1.70111719626787
C           -1.10022651401372       -1.67591161327355       -1.84140931197041
S            0.15795393110922       -1.97539818660342       -3.02477721540723
O            0.18269857737212       -3.37695785381946       -3.41309041509983
O            0.02353563491982       -1.03191824861892       -4.13545029768072
C            1.54954286437827       -1.56916482949145       -2.04529936960540
C            2.72180079932946       -2.34048459587055       -2.01327570839195
C            3.78299219908579       -1.93385332605409       -1.23792219685167
C            3.67619748967549       -0.77152154199712       -0.47158234569242
N            4.77951465615223       -0.31776936010796        0.30652457065035
C            4.98362489582789       -0.85385892612131        1.55985323291707
C            4.08198555729928       -1.80875865738464        2.05384035751824
C            4.26356854487889       -2.37454570928251        3.29521371349859
C            5.34979486833649       -1.99865345980843        4.07246593920497
C            6.23377299963735       -1.04771792613780        3.59530713020203
C            6.07474150116468       -0.45548434959639        2.34977467239678
C            7.06336802900536        0.59192070059427        1.88336628636190
C            7.04956141578680        1.76366405948027        2.88519669169581
C            8.46766775347361       -0.04171165651708        1.82792053378969
C            6.71867498492004        1.12174560431017        0.50765373952374
C            7.51636646898694        2.09776443896844       -0.07481938669866
C            7.25324641249958        2.60285134958651       -1.33516727834960
C            6.16840305441283        2.12030767534883       -2.05289505660163
C            5.36070078594873        1.15135269168369       -1.50253162192208
C            5.61518626456291        0.64569843841552       -0.21876436456137
C            2.47738853026601       -0.02444665097996       -0.45856619216178
C            1.41816169422524       -0.41172089690548       -1.25757913824123
H            1.16018464208488        1.90780193681901       -3.05999881558937
H            2.22340003295736        2.17208406789446       -1.67492462560142
H            1.05501047961520        3.41352688724624       -2.13787751712918
H            0.29249875508137        2.06154066508392       -0.13163568477483
H           -1.47460884989346        3.59580228770300       -0.04970512661774
H           -3.60415096416475        4.47004307235488       -0.90473735361874
H           -4.54086369610440        3.59462606784056       -3.01924519022132
H           -3.32125586099386        1.84896143764549       -4.26782563230023
H           -1.19075247934938        0.97783458526210       -3.41649805217926
H           -1.85194366449312        0.76678990080144        0.36938443183668
H           -4.23861617814326       -3.21433556011934        1.43450739454411
H           -6.31621874618619       -4.46517076446417        1.87181376183956
H           -8.48957740684986       -3.28364722486241        1.84676015667730
H           -8.57807183997985       -0.87988010944170        1.43274767613099
H           -5.23072057836511        0.61684063589728       -0.94717540441930
H           -6.97400111982469        0.66315215139389       -1.20873047932020
H           -6.09279373852617        2.14515534773991       -0.81335693032901
H           -8.54583207107647        1.14389895699016        0.64949836414216
H           -7.65501453197684        2.59948451882457        1.04130653428113
H           -7.96422413085452        1.39551252717910        2.30407759213264
H           -6.13448789046173        3.10915618975655        2.49869911537375
H           -4.16917038114039        3.77444670777373        3.78496151934095
H           -2.15513661672875        2.33802286940540        3.81173487911060
H           -2.11048618586346        0.26890404861876        2.47728978529881
H           -4.13163668442938       -2.70176785084750       -0.76992196517914
H           -2.34072647052626       -3.33459610377279       -2.33984432161121
H            2.76052604424470       -3.22831512291895       -2.62371667930012
H            4.70364806696492       -2.49780217261324       -1.22391160108061
H            3.23875574508767       -2.09658255890976        1.44588376584708
H            3.55908523220541       -3.10806331432998        3.65739912175958
H            5.50392516769814       -2.44015666847910        5.04518195763941
H            7.06856127429516       -0.76268352144950        4.21634449002127
H            7.30878635803537        1.42083433170568        3.88234107783468
H            6.05775400513646        2.21034690716138        2.92084584541661
H            7.76144738876065        2.52939421185565        2.59219945008410
H            9.20702292503944        0.68752978983512        1.51037421127954
H            8.75840539634935       -0.42073271671042        2.80311966054300
H            8.47409130588783       -0.86886270978169        1.12043088630534
H            8.37007791479830        2.47746707635483        0.46438117589044
H            7.89211989850737        3.36326697612005       -1.75743632327600
H            5.95353541088318        2.49767331872803       -3.04123207724722
H            4.52282520542832        0.76651797350928       -2.06244513931622
H            2.40600769732498        0.83428772501144        0.18955722659811
