  45
  -78.5889596500000       0.363758142023118      !
 O          2.5039313248        1.0504373334       -2.4292355306
 S          2.9623239746        1.3535235683       -1.0983545580
 O          3.9166717979        2.4151120636       -0.9136922675
 C          3.5657930432       -0.1300219880       -0.3231673436
 C          4.5015942351       -0.0534511157        0.7079109474
 C          4.8079880522       -1.2095606826        1.3990266977
 C          4.1535233105       -2.3856299931        1.0460950418
 N          3.2612575785       -2.4559131014        0.0602563909
 C          2.9800732378       -1.3586151682       -0.6086082564
 C          1.5497826907        1.6220229676       -0.0495043132
 C          1.6729125304        2.3215360864        1.1514130198
 C          0.6277433517        2.3184211700        2.0494060843
 C         -0.5351040674        1.5986132488        1.7824643544
 C         -0.6427228452        0.8970950709        0.5759418849
 N         -1.8005890469        0.1271292003        0.2977237382
 C         -3.0174236971        0.7402730462        0.1262345622
 C         -3.1947804088        2.1271573062        0.2092499228
 C         -4.4371761743        2.6858571595        0.0427132376
 C         -5.5597991506        1.8752019221       -0.2302786139
 C         -5.4108055322        0.5151324895       -0.3575676880
 C         -4.1586748593       -0.0732652570       -0.1937022635
 O         -4.0485345935       -1.4059349557       -0.3673255300
 C         -2.8435295676       -1.9928499232       -0.2187577936
 C         -2.7447975351       -3.3674009770       -0.4199285521
 C         -1.5409001760       -4.0092407837       -0.2499850539
 C         -0.4033434318       -3.2805595600        0.1589018696
 C         -0.4791118459       -1.9265564912        0.3604331605
 C         -1.6798195853       -1.2332380275        0.1493053517
 C          0.3907075927        0.9144005850       -0.3415595797
 H          4.9662081675        0.8957145484        0.9246147765
 H          5.5342929851       -1.2065555814        2.1968703111
 H          4.3465100968       -3.3142426930        1.5646880956
 H          2.2674410190       -1.4461953358       -1.4168936529
 H          2.5873905505        2.8593418886        1.3416937363
 H          0.7083597767        2.8630520561        2.9777363146
 H         -1.3406893811        1.5622383626        2.4986406243
 H         -2.3385416147        2.7539826963        0.4013796949
 H         -4.5579435796        3.7545128344        0.1129320478
 H         -6.5294964891        2.3284163532       -0.3545193003
 H         -6.2457577840       -0.1261098108       -0.5913793056
 H         -3.6356465542       -3.9020636209       -0.7094667081
 H         -1.4653559420       -5.0712245856       -0.4161326268
 H          0.5368889830       -3.7851829844        0.3095283155
 H          0.3956789690       -1.3842572109        0.6821000218
 H          0.3164587982        0.3991943837       -1.2860406728
  45
  -78.5879534300000       0.125425554132297      !
 O          2.5949918489        1.3920852286       -2.3413467093
 S          3.0016595812        1.4850590098       -0.9624541395
 O          3.9876182692        2.4634555416       -0.5905476904
 C          3.4921204618       -0.1288579515       -0.3942816112
 C          3.0032680044       -1.2703439259       -1.0295029579
 C          3.2624477340       -2.5000943494       -0.4544370495
 C          3.9860564303       -2.5353556126        0.7322684975
 N          4.4539466216       -1.4427483552        1.3325760055
 C          4.2130532487       -0.2721122708        0.7851263744
 C          1.5590194101        1.6821168110        0.0636609981
 C          1.6345350063        2.3626566893        1.2774447658
 C          0.5626321824        2.3295586019        2.1434120675
 C         -0.5784935848        1.5953862248        1.8285319894
 C         -0.6344462421        0.9066282261        0.6126704298
 N         -1.7708631416        0.1175695764        0.2960350721
 C         -2.9802498928        0.7170659060        0.0483156440
 C         -3.1633094591        2.1055969651        0.0698240719
 C         -4.3977520787        2.6524187915       -0.1752816619
 C         -5.5053543042        1.8268236394       -0.4660827262
 C         -5.3498615794        0.4628448111       -0.5277284874
 C         -4.1057162217       -0.1142554133       -0.2833206839
 O         -3.9868536050       -1.4535657900       -0.3827065490
 C         -2.7894395997       -2.0291129300       -0.1517300812
 C         -2.6862167708       -3.4136740395       -0.2607906877
 C         -1.4927879965       -4.0433229783       -0.0001812439
 C         -0.3683621505       -3.2874180767        0.3985304370
 C         -0.4448277170       -1.9222197574        0.5047997195
 C         -1.6387373203       -1.2469559584        0.2155223267
 C          0.4246395645        0.9546339371       -0.2738184119
 H          2.4567432985       -1.1661374541       -1.9538625901
 H          2.9137465006       -3.4126033010       -0.9132954613
 H          4.2099644521       -3.4687610684        1.2291841602
 H          4.6092156615        0.5997556831        1.2864578385
 H          2.5354201069        2.9099852728        1.5022974326
 H          0.6059473853        2.8608932820        3.0815934344
 H         -1.4086519829        1.5387288826        2.5148112878
 H         -2.3172042812        2.7413482172        0.2773600758
 H         -4.5244245089        3.7224310811       -0.1523386320
 H         -6.4690689575        2.2713477715       -0.6529088609
 H         -6.1737532105       -0.1901261485       -0.7681665585
 H         -3.5663062925       -3.9664608130       -0.5489101415
 H         -1.4143832238       -5.1144004041       -0.0866541285
 H          0.5580844495       -3.7881530623        0.6276943041
 H          0.4194717052       -1.3565702009        0.8163293095
 H          0.3865858966        0.4458956119       -1.2240013510
  45
  -78.5879392900000       0.123562798082937      !
 O          2.5313778327        1.2571674131       -2.3703838432
 S          2.9699507229        1.4389552618       -1.0100179934
 O          3.9278541388        2.4710366214       -0.7180377560
 C          3.5412698807       -0.1208764527       -0.3719721502
 C          3.0521073270       -1.3140672158       -0.9032238979
 C          3.3951340229       -2.4972451448       -0.2775239854
 C          4.2000650702       -2.4372083895        0.8545682897
 N          4.6653113267       -1.2956955912        1.3564161911
 C          4.3443810420       -0.1686519912        0.7609203122
 C          1.5443142845        1.6375610634        0.0377882612
 C          1.6373475580        2.3233000773        1.2476780743
 C          0.5764626997        2.2967546641        2.1270182978
 C         -0.5728695884        1.5683357168        1.8277955948
 C         -0.6480505036        0.8781174870        0.6138187487
 N         -1.7981563985        0.1067669168        0.3044325740
 C         -3.0006392383        0.7264694641        0.0709262591
 C         -3.1644135868        2.1169218538        0.1103076062
 C         -4.3925939185        2.6837849092       -0.1205685318
 C         -5.5133358282        1.8774805962       -0.4139762748
 C         -5.3766589342        0.5125525919       -0.4949126861
 C         -4.1387255550       -0.0843897936       -0.2668148457
 O         -4.0380102253       -1.4231548794       -0.3912407726
 C         -2.8463666763       -2.0178625673       -0.1791583323
 C         -2.7596035100       -3.4003216458       -0.3218521960
 C         -1.5727525170       -4.0497941346       -0.0801040974
 C         -0.4391177989       -3.3168651344        0.3347109238
 C         -0.4989553580       -1.9536609223        0.4724561080
 C         -1.6850031999       -1.2577825745        0.1999170847
 C          0.4023917807        0.9150027614       -0.2836028075
 H          2.4408813841       -1.2846539592       -1.7913698004
 H          3.0514772711       -3.4470809451       -0.6571259798
 H          4.4935742582       -3.3314024607        1.3860002279
 H          4.7419673641        0.7443525129        1.1809143365
 H          2.5414302340        2.8708108620        1.4585063464
 H          0.6334616711        2.8310342358        3.0627622404
 H         -1.3951568615        1.5193863871        2.5239729478
 H         -2.3086176529        2.7389547571        0.3197307358
 H         -4.5037554846        3.7552191612       -0.0843157946
 H         -6.4719753506        2.3374223417       -0.5883929999
 H         -6.2105886063       -0.1261332093       -0.7392238254
 H         -3.6465682426       -3.9359531497       -0.6210841809
 H         -1.5065497847       -5.1191246440       -0.1945128152
 H          0.4811276721       -3.8345451559        0.5508745166
 H          0.3720400714       -1.4050038935        0.7958451914
 H          0.3507465017        0.4063112610       -1.2331243389
  45
  -78.5878604500000       0.113672491484146      !
 O          2.6189889496        1.5795584928       -2.2670199853
 S          3.0120524485        1.5384615930       -0.8818760844
 O          4.0359430862        2.4374365556       -0.4223758035
 C          3.4206382874       -0.1407441609       -0.4511187020
 C          2.9100162443       -1.1966589441       -1.2056930235
 C          3.0975129431       -2.4842158242       -0.7386846598
 C          3.7775924198       -2.6587277158        0.4605971750
 N          4.2688736001       -1.6477530430        1.1745518417
 C          4.0927696555       -0.4222449695        0.7309868465
 C          1.5672951077        1.7225482277        0.1460624133
 C          1.6276554720        2.4010329480        1.3613448034
 C          0.5443867664        2.3672315429        2.2135800861
 C         -0.5915696759        1.6305781896        1.8858004362
 C         -0.6285560332        0.9381282048        0.6718367582
 N         -1.7488716344        0.1301765675        0.3433710545
 C         -2.9510499471        0.7079142744        0.0243869842
 C         -3.1512502529        2.0940005148        0.0080205277
 C         -4.3758778271        2.6195624443       -0.3183559397
 C         -5.4554640857        1.7734044440       -0.6548158069
 C         -5.2823625721        0.4105080788       -0.6748101452
 C         -4.0477684085       -0.1457951753       -0.3469934478
 O         -3.9081366374       -1.4854128055       -0.4067290671
 C         -2.7173897881       -2.0399211887       -0.1018691385
 C         -2.5892956990       -3.4247648036       -0.1752884651
 C         -1.4005257945       -4.0304412264        0.1544607382
 C         -0.3053691587       -3.2495191805        0.5867342067
 C         -0.4059459102       -1.8838388346        0.6586125511
 C         -1.5954467719       -1.2333387606        0.3018191972
 C          0.4392091043        0.9916849702       -0.2034076770
 H          2.4054764468       -0.9845972012       -2.1351411243
 H          2.7268960699       -3.3346162794       -1.2894552383
 H          3.9475286604       -3.6429036297        0.8743822892
 H          4.5048053494        0.3820084456        1.3245698847
 H          2.5263875659        2.9467000397        1.5986094065
 H          0.5751995784        2.8996890203        3.1516446247
 H         -1.4305993783        1.5737622378        2.5611181260
 H         -2.3252381771        2.7435810165        0.2509274212
 H         -4.5166602498        3.6879040500       -0.3259277321
 H         -6.4112243123        2.2018169367       -0.9077517583
 H         -6.0841314127       -0.2578582127       -0.9459977174
 H         -3.4466237447       -3.9972956855       -0.4917988523
 H         -1.3033610843       -5.1018021201        0.0958061489
 H          0.6176699636       -3.7306435853        0.8661520428
 H          0.4350273422       -1.2981407173        0.9954594227
 H          0.4125851235        0.4773496500       -1.1508664045
  45
  -78.5869203300000       4.203452471598597E-002 !
 O          2.1326211091        1.8870579028       -2.0305979508
 S          2.7391418811        1.7984452560       -0.7269308479
 O          3.5031973169        2.9175363420       -0.2386017234
 C          3.7404003603        0.3308504820       -0.6364680325
 C          4.8311901445        0.2772517550        0.2287744118
 C          5.5081668805       -0.9212659410        0.3510134665
 C          5.0594169616       -2.0118090659       -0.3856493340
 N          4.0161381405       -1.9562494535       -1.2100749195
 C          3.3748610230       -0.8145432273       -1.3318893335
 C          1.4667425200        1.4000495956        0.4532011080
 C          1.6881099664        1.5805772952        1.8184125722
 C          0.7316169458        1.1712127103        2.7218021142
 C         -0.4501877825        0.5795693561        2.2812149961
 C         -0.6584129843        0.4067698278        0.9081857907
 N         -1.8700792825       -0.1752116329        0.4491384816
 C         -2.7707776959        0.5888350862       -0.2484597910
 C         -2.5889844573        1.9573826374       -0.4932238562
 C         -3.5170482148        2.6689182377       -1.2086976792
 C         -4.6784109574        2.0399559078       -1.7096476174
 C         -4.8998834942        0.7066778811       -1.4616820680
 C         -3.9747227101       -0.0350091111       -0.7315194912
 O         -4.2434710423       -1.3323529293       -0.4825189392
 C         -3.3535952517       -2.0691664364        0.2115635829
 C         -3.6438326171       -3.4107427191        0.4510731834
 C         -2.7473757378       -4.2041336917        1.1252854805
 C         -1.5162986213       -3.6668598953        1.5616904881
 C         -1.2113682849       -2.3473992613        1.3402331817
 C         -2.1184131115       -1.5042737853        0.6858020254
 C          0.2984841837        0.8051540223       -0.0055639634
 H          5.1252053246        1.1694423434        0.7592115027
 H          6.3655335802       -1.0139241660        0.9996418702
 H          5.5507345962       -2.9724553503       -0.3241724358
 H          2.5403665971       -0.7887859263       -2.0187671837
 H          2.6008102562        2.0590907927        2.1339676543
 H          0.8873558558        1.3140350244        3.7800884724
 H         -1.2098672582        0.2701079958        2.9814579022
 H         -1.7056912425        2.4452982771       -0.1129491329
 H         -3.3607313473        3.7191434323       -1.3925992151
 H         -5.3923809667        2.6113863696       -2.2792228760
 H         -5.7846733406        0.2038440492       -1.8186865126
 H         -4.5817134806       -3.7995094136        0.0873354828
 H         -2.9736081519       -5.2410865539        1.3106464056
 H         -0.8082578620       -4.3032198145        2.0668617070
 H         -0.2643247675       -1.9460069537        1.6650213078
 H          0.1545751315        0.6846587161       -1.0676707336
  45
  -78.5869027700000       4.126065556869955E-002 !
 O          2.1674208495        1.7900241150       -2.0827832432
 S          2.7513772858        1.7641736333       -0.7670013851
 O          3.4814194898        2.9179547017       -0.3081253506
 C          3.7838732576        0.3246760409       -0.5965405059
 C          4.8918933577        0.3514350140        0.2474540361
 C          5.5912505809       -0.8249284468        0.4419672990
 C          5.1464821068       -1.9731664199       -0.2033782729
 N          4.0859168279       -1.9944276901       -1.0077546577
 C          3.4237535646       -0.8740321710       -1.1986771650
 C          1.4671610379        1.3784705387        0.4062851137
 C          1.6886843734        1.5551777797        1.7714174439
 C          0.7313266053        1.1467862393        2.6743787057
 C         -0.4525643426        0.5610115492        2.2314398071
 C         -0.6623772543        0.3952656749        0.8583628781
 N         -1.8810358219       -0.1775384218        0.4034729772
 C         -2.8051972014        0.6072172133       -0.2378769688
 C         -2.6227111115        1.9787903736       -0.4626356473
 C         -3.5808535524        2.7142900449       -1.1116154280
 C         -4.7745958406        2.1070570753       -1.5611533377
 C         -4.9929669845        0.7692549139       -1.3361654710
 C         -4.0353350957        0.0020319356       -0.6772788909
 O         -4.2989395889       -1.3007170635       -0.4513104539
 C         -3.3788199452       -2.0611338851        0.1750461350
 C         -3.6613823883       -3.4084525901        0.3892418583
 C         -2.7369463102       -4.2219583847        0.9985755145
 C         -1.4857068683       -3.6989741360        1.3954360448
 C         -1.1884350646       -2.3740440004        1.2001324453
 C         -2.1213447572       -1.5119177528        0.6096180336
 C          0.2957986753        0.7908279069       -0.0550734923
 H          5.1807228932        1.2843496327        0.7059778935
 H          6.4633993832       -0.8568846562        1.0769554818
 H          5.6533999031       -2.9199182010       -0.0806701524
 H          2.5751515025       -0.9115705994       -1.8675696586
 H          2.6038654017        2.0276983941        2.0890853093
 H          0.8883638472        1.2847484713        3.7330494864
 H         -1.2122921713        0.2482032567        2.9302137569
 H         -1.7146581662        2.4493704701       -0.1205271011
 H         -3.4240926304        3.7668092425       -1.2816616534
 H         -5.5147175396        2.6987311349       -2.0740935417
 H         -5.9004804535        0.2822036074       -1.6564062221
 H         -4.6164722900       -3.7849128385        0.0586653976
 H         -2.9573879962       -5.2635844118        1.1642136148
 H         -0.7581859372       -4.3512431030        1.8499381453
 H         -0.2280329318       -1.9812870186        1.4955788103
 H          0.1520706030        0.6729362966       -1.1175346513
  45
  -78.5867996100000       3.699364038548925E-002 !
 O          2.1172322446        1.9074439087       -1.9825758899
 S          2.7286181307        1.8014587781       -0.6823347603
 O          3.4576002383        2.9306401728       -0.1640798747
 C          3.7834765816        0.3691958435       -0.6395386833
 C          4.9015565776        0.3448333159        0.1910882139
 C          5.6348234382       -0.8247686835        0.2627452162
 C          5.2126614232       -1.9165034618       -0.4879214915
 N          4.1420485736       -1.8895735025       -1.2779221388
 C          3.4472758644       -0.7748594848       -1.3515160647
 C          1.4655159143        1.3426259350        0.4863550364
 C          1.6793927686        1.5011544941        1.8553425494
 C          0.7173260574        1.0776465941        2.7464146840
 C         -0.4643218605        0.4990685576        2.2893693704
 C         -0.6656590647        0.3478986355        0.9122904439
 N         -1.8825572111       -0.2097846534        0.4392734298
 C         -2.7531365469        0.5693089856       -0.2813386308
 C         -2.5288385905        1.9270676066       -0.5507069961
 C         -3.4287014325        2.6524388165       -1.2881349823
 C         -4.6052637551        2.0502699532       -1.7868608486
 C         -4.8704751000        0.7305050248       -1.5124758476
 C         -3.9742287682       -0.0247762629       -0.7599697689
 O         -4.2899902304       -1.3053823700       -0.4823990765
 C         -3.4311958358       -2.0562150356        0.2348820165
 C         -3.7727049649       -3.3793595016        0.5072582070
 C         -2.9089732734       -4.1888024521        1.2045092524
 C         -1.6583951857       -3.6876735548        1.6294015030
 C         -1.3036144760       -2.3866147568        1.3765857507
 C         -2.1778851288       -1.5246821633        0.7016034699
 C          0.3001838783        0.7551839761        0.0113345141
 H          5.1728010496        1.2375491942        0.7328674118
 H          6.5155131632       -0.8937707301        0.8824828858
 H          5.7484257783       -2.8551193762       -0.4658966332
 H          2.5913325557       -0.7710973980       -2.0120167460
 H          2.5898227151        1.9750928507        2.1838859225
 H          0.8665609213        1.2037511197        3.8077799042
 H         -1.2311735150        0.1860770913        2.9802319379
 H         -1.6356111319        2.3975715988       -0.1719701178
 H         -3.2376321775        3.6932056204       -1.4915328761
 H         -5.2970272580        2.6323335873       -2.3729636020
 H         -5.7691988886        0.2486193295       -1.8636903422
 H         -4.7239210601       -3.7410692359        0.1501944764
 H         -3.1754135857       -5.2109574295        1.4168997695
 H         -0.9753025928       -4.3380658563        2.1508935318
 H         -0.3418848549       -2.0144029690        1.6927997144
 H          0.1637413725        0.6508319453       -1.0535143180
  45
  -78.5867235500000       3.413283133192641E-002 !
 O          2.3118176380        1.4889993639       -2.2226496790
 S          2.8345026240        1.5925957792       -0.8833836485
 O          3.6357731596        2.7356343824       -0.5348465889
 C          3.7284352977        0.1048662813       -0.4917801595
 C          3.3880728222       -1.0993684966       -1.1047572588
 C          4.0334316413       -2.2484755732       -0.6898917019
 C          4.9814758093       -2.1449735283        0.3229470288
 N          5.3022356835       -0.9928380593        0.9051195136
 C          4.6921555849        0.1026809248        0.5094488394
 C          1.4781764993        1.4592263096        0.2630988190
 C          1.6243121602        1.8982362044        1.5775362611
 C          0.6071671454        1.6888871780        2.4828083050
 C         -0.5610992054        1.0358465333        2.0929438229
 C         -0.6901684695        0.6013436852        0.7721280095
 N         -1.8876319672       -0.0541125984        0.3643516409
 C         -2.9418049026        0.6894406187       -0.0949422419
 C         -2.9056657548        2.0869381605       -0.1810290763
 C         -3.9884407501        2.7839534980       -0.6532875145
 C         -5.1577080433        2.1051796669       -1.0633818735
 C         -5.2214255099        0.7340737496       -0.9937748552
 C         -4.1351555015        0.0044739069       -0.5164594373
 O         -4.2295486318       -1.3397815775       -0.4624768813
 C         -3.1797026549       -2.0586389267       -0.0154270511
 C         -3.2872934677       -3.4466417451        0.0281969863
 C         -2.2360998797       -4.2093148488        0.4776547899
 C         -1.0374746633       -3.5897811780        0.8983173140
 C         -0.9082242320       -2.2244162249        0.8643957590
 C         -1.9624981358       -1.4206008732        0.4132433170
 C          0.3232608622        0.8017388719       -0.1442212337
 H          2.6507259511       -1.1000550271       -1.8925146081
 H          3.8137881548       -3.2047647727       -1.1390838581
 H          5.5152593284       -3.0121950314        0.6851932397
 H          4.9800308996        1.0295163464        0.9853308076
 H          2.5315044490        2.4126361670        1.8494485436
 H          0.7063065634        2.0312544006        3.5012335582
 H         -1.3639079768        0.8678971288        2.7931512525
 H         -2.0101402089        2.6045876387        0.1253148661
 H         -3.9488483656        3.8590048710       -0.7171333111
 H         -5.9985252240        2.6677388776       -1.4343803241
 H         -6.1011076674        0.1926715200       -1.3038642684
 H         -4.2116277009       -3.8953891006       -0.2995118757
 H         -2.3214688899       -5.2829434779        0.5105412116
 H         -0.2197168788       -4.1982474972        1.2484956732
 H          0.0073360877       -1.7513635419        1.1850100635
 H          0.2319139184        0.4838414695       -1.1705333478
  45
  -78.5866232300000       3.069505633698223E-002 !
 O          2.1868065772        1.9652960655       -2.0023636352
 S          2.7703427596        1.8153922798       -0.6926440500
 O          3.5774390213        2.8833262436       -0.1649921392
 C          3.6883949376        0.2930437680       -0.6349725857
 C          3.3544203209       -0.7601421562       -1.4842616155
 C          4.0097918684       -1.9653001772       -1.3193127514
 C          4.9605833499       -2.0676729490       -0.3087733120
 N          5.2765487011       -1.0587220867        0.4984315820
 C          4.6576252877        0.0905879935        0.3404349227
 C          1.4710168347        1.4405959305        0.4655294989
 C          1.6714969291        1.6326462078        1.8318750500
 C          0.7049565866        1.2248759271        2.7249169541
 C         -0.4660381160        0.6207524677        2.2716474928
 C         -0.6536920768        0.4375565837        0.8981360134
 N         -1.8539729273       -0.1606600153        0.4280739518
 C         -2.7736233919        0.5990226239       -0.2490503656
 C         -2.6156529752        1.9737614305       -0.4725573767
 C         -3.5663166941        2.6836445180       -1.1601013272
 C         -4.7264678591        2.0459176426       -1.6522584389
 C         -4.9210830604        0.7038712316       -1.4296167879
 C         -3.9713285338       -0.0370373598       -0.7306939944
 O         -4.2100737292       -1.3460028848       -0.5113985031
 C         -3.2981332102       -2.0801855504        0.1572660913
 C         -3.5555461730       -3.4335482594        0.3649966362
 C         -2.6391845730       -4.2211263800        1.0192597739
 C         -1.4218949927       -3.6645302370        1.4701771200
 C         -1.1482645026       -2.3335304532        1.2782915837
 C         -2.0739996918       -1.4986516473        0.6399094308
 C          0.3122854820        0.8363938662       -0.0060956508
 H          2.6139548847       -0.6014725811       -2.2529085095
 H          3.7947686296       -2.8093793736       -1.9563452083
 H          5.4990504895       -2.9883939906       -0.1338592229
 H          4.9416678248        0.8999598025        0.9980905604
 H          2.5776910526        2.1183775265        2.1547172463
 H          0.8446044384        1.3770279613        3.7839914730
 H         -1.2322604527        0.3076961000        2.9630839964
 H         -1.7332082573        2.4675496030       -0.0977232125
 H         -3.4291539069        3.7393225423       -1.3274742954
 H         -5.4606516954        2.6171531307       -2.1959866058
 H         -5.8032020197        0.1936181220       -1.7827483917
 H         -4.4852784350       -3.8356636152       -0.0051197727
 H         -2.8406452148       -5.2672543180        1.1806427119
 H         -0.7006984233       -4.2943130669        1.9649929337
 H         -0.2126389612       -1.9156519583        1.6157045788
 H          0.1813794180        0.7077453523       -1.0689394109
  45
  -78.5866201500000       3.059517663255170E-002 !
 O          2.2010927452        1.8394121639       -2.0689643639
 S          2.7762619148        1.7614460139       -0.7495192708
 O          3.5752861135        2.8589129499       -0.2727718293
 C          3.7038853210        0.2500694702       -0.6052932572
 C          3.3480456977       -0.8661193903       -1.3601823703
 C          4.0191416794       -2.0516129067       -1.1296300900
 C          5.0078775158       -2.0718417517       -0.1508939493
 N          5.3440770456       -1.0033938837        0.5665099726
 C          4.7093871646        0.1269612173        0.3463732290
 C          1.4685092473        1.4402118074        0.4160132833
 C          1.6694764153        1.6670547174        1.7766192620
 C          0.6967537753        1.2967057009        2.6792339368
 C         -0.4802818969        0.6924913448        2.2408455556
 C         -0.6672156667        0.4739990321        0.8732730745
 N         -1.8705559525       -0.1328192115        0.4182249418
 C         -2.8208233233        0.6266920836       -0.2131082881
 C         -2.6907780407        2.0090120727       -0.4037381482
 C         -3.6713997344        2.7199413872       -1.0467662442
 C         -4.8324713342        2.0739784219       -1.5267542849
 C         -4.9970329545        0.7225024733       -1.3392162261
 C         -4.0170841606       -0.0198713392       -0.6848984635
 O         -4.2224811198       -1.3399288470       -0.5004554892
 C         -3.2787231406       -2.0743308541        0.1225787330
 C         -3.5002788242       -3.4389405290        0.2949934153
 C         -2.5509926613       -4.2237608786        0.9042330022
 C         -1.3373666621       -3.6525165173        1.3473735994
 C         -1.0986355547       -2.3103158962        1.1904223241
 C         -2.0561686694       -1.4802827268        0.5944819311
 C          0.3025141172        0.8380489619       -0.0409448809
 H          2.5785211856       -0.7712178988       -2.1106079741
 H          3.7876019092       -2.9427196082       -1.6926639509
 H          5.5612781888       -2.9733733969        0.0711977538
 H          5.0101192499        0.9857311633        0.9299023976
 H          2.5822674102        2.1477108845        2.0884782479
 H          0.8374489275        1.4753582796        3.7340252273
 H         -1.2491669595        0.4029122118        2.9394876167
 H         -1.8056183303        2.5057772292       -0.0389157884
 H         -3.5578077789        3.7820713165       -1.1890807184
 H         -5.5902853382        2.6463019033       -2.0358494944
 H         -5.8776759742        0.2061512052       -1.6872305592
 H         -4.4292233768       -3.8519393193       -0.0650907087
 H         -2.7248202977       -5.2787259355        1.0383168894
 H         -0.5923582756       -4.2795829146        1.8093072165
 H         -0.1673592253       -1.8787223374        1.5229177705
 H          0.1705188080        0.6837790546       -1.1001795986
  45
  -78.5865929100000       2.972585312208738E-002 !
 O          2.2434718839        1.6386086334       -2.1674391215
 S          2.7963914397        1.6726757770       -0.8371457386
 O          3.5859362610        2.8079762778       -0.4407931719
 C          3.7226211460        0.1816644766       -0.5512910878
 C          3.3487740534       -1.0041205586       -1.1810573692
 C          4.0185439600       -2.1638815448       -0.8406759597
 C          5.0242215243       -2.0891559723        0.1182494902
 N          5.3772253500       -0.9545146913        0.7158421605
 C          4.7435135257        0.1512002368        0.3915770261
 C          1.4699205726        1.4447772101        0.3293254489
 C          1.6525261883        1.7709917598        1.6718729074
 C          0.6642943781        1.4755264523        2.5850744391
 C         -0.5111399884        0.8476091643        2.1749806114
 C         -0.6783491845        0.5292518330        0.8256676822
 N         -1.8831081994       -0.0976085128        0.3965488402
 C         -2.8842194049        0.6612506356       -0.1485457776
 C         -2.7976985591        2.0533874699       -0.2805625179
 C         -3.8292748597        2.7657793515       -0.8364833283
 C         -4.9968315422        2.1096376337       -1.2864043062
 C         -5.1133067890        0.7455954749       -1.1641944719
 C         -4.0807104723        0.0009191092       -0.5997148249
 O         -4.2315987082       -1.3344638629       -0.4858531383
 C         -3.2354788905       -2.0686139970        0.0504253044
 C         -3.4003242726       -3.4479925383        0.1529095673
 C         -2.4010043703       -4.2277590455        0.6841994538
 C         -1.1958344716       -3.6351696670        1.1237213799
 C         -1.0110651198       -2.2785877784        1.0328100466
 C         -2.0155572734       -1.4566989303        0.5071312462
 C          0.3062803998        0.8167357630       -0.0991313662
 H          2.5671730567       -0.9829482615       -1.9246631180
 H          3.7735476584       -3.1066101150       -1.3052257229
 H          5.5778077328       -2.9662103857        0.4225963393
 H          5.0564726500        1.0637646457        0.8790810472
 H          2.5642391242        2.2679489724        1.9607143813
 H          0.7912571853        1.7311821177        3.6256234080
 H         -1.2916129926        0.6137117396        2.8815044627
 H         -1.9050402547        2.5547022450        0.0592935099
 H         -3.7509336778        3.8361482520       -0.9342384252
 H         -5.7963334610        2.6838496677       -1.7247302330
 H         -5.9953570140        0.2214026950       -1.4964827843
 H         -4.3262523504       -3.8764359570       -0.1966489581
 H         -2.5307170751       -5.2945146828        0.7632268972
 H         -0.4158869021       -4.2573805058        1.5313683670
 H         -0.0884408109       -1.8270772634        1.3637876229
 H          0.1865636614        0.5878067761       -1.1461333555
  45
  -78.5865412100000       2.814327618377961E-002 !
 O          2.2420681853        2.1326080449       -1.9157997657
 S          2.8098032945        1.8645283179       -0.6182004998
 O          3.6728508274        2.8479385168       -0.0202303807
 C          3.6345599010        0.2889576640       -0.6615195064
 C          3.2797840998       -0.6622081199       -1.6164013682
 C          3.8507066058       -1.9178147034       -1.5309176968
 C          4.7403457006       -2.1697423121       -0.4919642200
 N          5.0777673711       -1.2572177115        0.4163056437
 C          4.5392722098       -0.0604103999        0.3339485036
 C          1.4878219648        1.4876948493        0.5143275195
 C          1.6585849964        1.6797779285        1.8842347432
 C          0.6751401950        1.2667479678        2.7567601628
 C         -0.4803322074        0.6537098992        2.2780912032
 C         -0.6367752588        0.4666435640        0.9007120478
 N         -1.8187187270       -0.1535340788        0.4136625956
 C         -2.7410122334        0.5814496551       -0.2869409051
 C         -2.5880064563        1.9484509387       -0.5560129014
 C         -3.5420953822        2.6321805640       -1.2651291103
 C         -4.7024806526        1.9755169757       -1.7314929805
 C         -4.8932947472        0.6416128281       -1.4625014232
 C         -3.9387447665       -0.0735388401       -0.7432314177
 O         -4.1761156075       -1.3736573585       -0.4760119498
 C         -3.2562262952       -2.0863031114        0.2045686393
 C         -3.5095660079       -3.4323857040        0.4587670574
 C         -2.5821025808       -4.1992008591        1.1221160431
 C         -1.3569518532       -3.6291443273        1.5340622286
 C         -1.0896678636       -2.3036250708        1.3015580928
 C         -2.0281901032       -1.4879866017        0.6563242955
 C          0.3439799138        0.8748994310        0.0170535808
 H          2.5887985807       -0.3894314285       -2.3994158434
 H          3.6152042215       -2.6879380003       -2.2500224668
 H          5.2129006816       -3.1350161604       -0.3771378208
 H          4.8377282251        0.6677631017        1.0750519343
 H          2.5555078550        2.1702274962        2.2253321726
 H          0.7892325942        1.4229246643        3.8181258423
 H         -1.2588234741        0.3337962118        2.9525097382
 H         -1.7067701712        2.4573499457       -0.1996827526
 H         -3.4086142491        3.6819382092       -1.4681305586
 H         -5.4402187802        2.5266750967       -2.2911203237
 H         -5.7759078297        0.1176604512       -1.7938042195
 H         -4.4448409654       -3.8460978044        0.1162456108
 H         -2.7805769302       -5.2396020175        1.3202216783
 H         -0.6262851561       -4.2439964294        2.0332521503
 H         -0.1502312349       -1.8749474658        1.6127213713
 H          0.2385270734        0.7402439598       -1.0477501141
