  56
        -93.58967961
 N          8.9712241479        0.8469016368       -0.8259889030
 C          7.8840259023        0.5784288427       -0.5852526542
 C          6.5499353712        0.2218001168       -0.2670774135
 N          5.5580561921        0.8943410963       -0.8626828577
 C          4.3412488980        0.5247410292       -0.5348350908
 C          4.0898727400       -0.5356793327        0.4055945165
 N          5.0645740363       -1.1970689771        0.9888691237
 C          6.3034965816       -0.8197987469        0.6546371528
 C          7.3930620951       -1.4991377061        1.2550356231
 N          8.2904252897       -2.0328271162        1.7263459770
 C          2.6575908168       -0.6934393601        0.5404891334
 C          1.8232457794       -1.5251193205        1.2500860262
 C          0.4402652748       -1.3570004821        1.1023998430
 C         -0.1338681353       -0.3974936471        0.2838688897
 C         -1.5954656470       -0.2669395028        0.2232407565
 C         -2.3890571240       -1.3875906796        0.0026511320
 C         -3.7736991720       -1.2755569814       -0.0627781096
 C         -4.6077107686       -2.4619523441       -0.3101697122
 C         -4.3229037572       -3.6714496241        0.3186418317
 C         -5.1101820647       -4.7846489427        0.0913331294
 C         -6.1902603603       -4.7087491830       -0.7717215563
 C         -6.4802612131       -3.5117344223       -1.4047372683
 C         -5.6975781865       -2.3957913903       -1.1744029651
 C         -4.3583057053       -0.0252229272        0.1100288126
 C         -3.5827629607        1.1045508199        0.3491167615
 C         -4.2158218388        2.4188583122        0.5394632117
 C         -5.3780089594        2.5438680465        1.2966983264
 C         -5.9740465346        3.7789278387        1.4710274266
 C         -5.4226556983        4.9072513234        0.8874294419
 C         -4.2678860757        4.7940815491        0.1317004088
 C         -3.6669154627        3.5608506503       -0.0387572901
 C         -2.1989436699        0.9742790779        0.4007373613
 C          0.7090299617        0.4572527934       -0.4838433567
 C          0.3321449118        1.4393634775       -1.4275698215
 C          1.2856410384        2.1795619192       -2.0887480345
 C          2.6645287906        2.0039687169       -1.8839901340
 C          3.0655263617        1.0362888712       -0.9954581579
 C          2.0839369726        0.2762609826       -0.3152017136
 H          2.2147438458       -2.2836270269        1.9099390852
 H         -0.2169534336       -1.9942240351        1.6766977909
 H         -1.9198285604       -2.3463312380       -0.1626812298
 H         -3.4917508331       -3.7321939477        1.0061543024
 H         -4.8824005776       -5.7145884223        0.5914202194
 H         -6.8047154564       -5.5788165040       -0.9491778698
 H         -7.3197589375       -3.4478367013       -2.0815551752
 H         -5.9188778629       -1.4688668966       -1.6835304516
 H         -5.4329459020        0.0692474179        0.0615871033
 H         -5.8034727699        1.6698056268        1.7680405754
 H         -6.8720663083        3.8621098992        2.0655652111
 H         -5.8907699762        5.8710473411        1.0213565871
 H         -3.8349108705        5.6703769399       -0.3282866401
 H         -2.7745985135        3.4784623392       -0.6427077022
 H         -1.5881619290        1.8354415264        0.6295651388
 H         -0.7140464358        1.5969603431       -1.6436321308
 H          0.9658256092        2.9234850384       -2.8036789666
 H          3.3809436072        2.6044545330       -2.4223594221
