56
 energy: -93.589709970073 gnorm: 0.000069104166 xtb: 6.7.1 (edcfbbe)
N            8.96691574053244        0.90314522429932       -0.78146719854802
C            7.88057618042596        0.62139148003785       -0.55181153571208
C            6.54718589125015        0.25029044150729       -0.24736329039357
N            5.55435525175898        0.91415236752032       -0.85106769535375
C            4.33824586870693        0.53315158378449       -0.53355409980609
C            4.08851755178098       -0.52995943264638        0.40453613942104
N            5.06427709273669       -1.18363348877488        0.99493736115327
C            6.30242905990082       -0.79499419389434        0.67100904238243
C            7.39321429831299       -1.46526142269405        1.27947300351235
N            8.29111877302762       -1.99146676763186        1.75801547156471
C            2.65661842370645       -0.69786234078117        0.53053314470839
C            1.82355534240875       -1.53529628308952        1.23500230586477
C            0.44031115515997       -1.37326771394138        1.08284997969200
C           -0.13529382547057       -0.41462472113874        0.26426005690288
C           -1.59670129572186       -0.28247349108617        0.20634202356979
C           -2.39543671257958       -1.40039677873023       -0.00925430243593
C           -3.77985048092656       -1.28246988249171       -0.06967453967128
C           -4.61962629028149       -2.46589384143466       -0.31253852936937
C           -4.34375685137192       -3.67272321501155        0.32526776403218
C           -5.13684723034535       -4.78288541252428        0.10252244377263
C           -6.21299527962438       -4.70664933309951       -0.76569404727179
C           -6.49367967775524       -3.51228042983303       -1.40791140235630
C           -5.70595957209480       -2.39900318935835       -1.18124892831833
C           -4.35930528839412       -0.02991952619098        0.10433849003884
C           -3.57842710425076        1.09684282862577        0.34020731716808
C           -4.20362294673498        2.41386577321237        0.53739920356301
C           -5.35898523894886        2.54319563945041        1.30422704218654
C           -5.94472580666868        3.78161886339988        1.48944157180470
C           -5.38987913825914        4.90891795757986        0.90711718750427
C           -4.24246603397980        4.79124264073130        0.14090323447096
C           -3.65167857881256        3.55466974581339       -0.04035650144221
C           -2.19501846821989        0.96107614110521        0.38537938158637
C            0.70644743237233        0.44304575383854       -0.50166885918445
C            0.32831265740910        1.42285991797722       -1.44742907238253
C            1.28070218600142        2.16806398440627       -2.10481734952303
C            2.65955746353666        2.00081654631043       -1.89309444410798
C            3.06189350077551        1.03546452866204       -1.00239341762385
C            2.08148559546473        0.26893170878087       -0.32762654279859
H            2.21617695538504       -2.29290791121802        1.89537383920896
H           -0.21596610293052       -2.01395202020554        1.65451792992752
H           -1.93112870783890       -2.36158136318989       -0.17442832129512
H           -3.51534513235328       -3.73326272085744        1.01628274289619
H           -4.91588693358650       -5.71099623203544        0.60918817586327
H           -6.83063999870948       -5.57484170106186       -0.94107461762746
H           -7.32950714302453       -3.44849748170954       -2.08926153171649
H           -5.91988214838362       -1.47395952263385       -1.69698177835478
H           -5.43382206652905        0.06824887587972        0.05987603193224
H           -5.78662532971092        1.66983297324987        1.77495063444933
H           -6.83706220637191        3.86829723466131        2.09198216113322
H           -5.84952361780772        5.87546394933677        1.05021276553124
H           -3.80699679948606        5.66671300574417       -0.31834014416723
H           -2.76480609681592        3.46892100218064       -0.65183102693288
H           -1.57996894049359        1.81992710085552        0.61139293401444
H           -0.71778503143655        1.57467388114017       -1.66811070245283
H            0.96001130889036        2.90993373700665       -2.82167908815913
H            3.37505567716550        2.60588190886139       -2.42777125520054
