56
 energy: -93.538884428055 gnorm: 0.000067002928 xtb: 6.7.1 (edcfbbe)
N            8.98256293631263        0.89807910128829       -0.79824909599165
C            7.90025898739919        0.59691343922932       -0.55499617180646
C            6.58333193918685        0.23347261627465       -0.26117791025303
N            5.55811120556234        0.85503091576691       -0.79347178081244
C            4.33211055460288        0.55846710894311       -0.55595015327119
C            4.05924270512073       -0.59318865060784        0.40779167155957
N            5.07399377557448       -1.19079893575875        0.91923302178319
C            6.32161154694426       -0.87232773443520        0.66670338150069
C            7.39046161729480       -1.55443432423973        1.25359050521533
N            8.26790056486107       -2.11756456224277        1.73782622393182
C            2.65183567459260       -0.72728981966595        0.50399512685951
C            1.80127590129751       -1.58349430294189        1.19498460896457
C            0.43135571059972       -1.40339116901260        1.03973845770130
C           -0.13796344268132       -0.41506877995469        0.24094039329103
C           -1.59774332463147       -0.27571430357022        0.19053674442879
C           -2.40408717028476       -1.38951160808766       -0.02235441290330
C           -3.78862051734902       -1.26752131349255       -0.07128963719806
C           -4.63315200021084       -2.44833023961797       -0.30915991947656
C           -4.35260386937690       -3.65810434703086        0.32144449470250
C           -5.14992856384193       -4.76615964851027        0.10397131488925
C           -6.23576920168911       -4.68531466005089       -0.75178249099417
C           -6.52151422269991       -3.48819833368078       -1.38676429777835
C           -5.72925293127048       -2.37716448591819       -1.16545273141406
C           -4.36356148782168       -0.01364593541868        0.10820207030176
C           -3.57634035497086        1.10949044202393        0.34058987222088
C           -4.19513037498014        2.42844946506558        0.54388289972045
C           -5.34720856069416        2.56150891162634        1.31524641018520
C           -5.92705490428924        3.80195230319680        1.50503203937001
C           -5.36955937681116        4.92814805526258        0.92297477743653
C           -4.22535015973676        4.80701292883987        0.15239358216088
C           -3.64054521738825        3.56836449152603       -0.03348590471024
C           -2.19323400726619        0.96857158776343        0.37794425813830
C            0.71000348612966        0.45474993302623       -0.50155977171550
C            0.33949945039497        1.45846134208189       -1.42296590612193
C            1.29976289059352        2.21944594667255       -2.06308187116222
C            2.66886744702153        2.04879036434561       -1.86002462568633
C            3.07092881545317        1.04745820836757       -0.98524359926162
C            2.08608437611945        0.26666371086296       -0.33109645784244
H            2.18831638540649       -2.35844449970160        1.83748517078304
H           -0.23425613353690       -2.05131772500450        1.59243568001346
H           -1.94518851806740       -2.35212361848755       -0.19463115798412
H           -3.51657282651031       -3.72238490535793        1.00287078546516
H           -4.92493289167001       -5.69640875579401        0.60505459628896
H           -6.85685902537513       -5.55192957271916       -0.92311242050003
H           -7.36493795248585       -3.42078660642165       -2.05842660995297
H           -5.94731666413303       -1.45014373439385       -1.67583612642304
H           -5.43802841967789        0.08831402180855        0.07121355521926
H           -5.77697038801581        1.68904879772171        1.78575781237599
H           -6.81688886138812        3.89128910601651        2.11100894461644
H           -5.82461287057876        5.89639733475811        1.06970027312384
H           -3.78789634466741        5.68162373136558       -0.30674233697941
H           -2.75629149648308        3.47987198649256       -0.64821936693943
H           -1.57480402471496        1.82474209927656        0.60450299481409
H           -0.70416617255174        1.62062989611487       -1.64464454797331
H            0.97826090026040        2.98102081939890       -2.75898979011204
H            3.38844966626334        2.66495815983625       -2.37516637403498
