74
 energy: -119.219893523819 gnorm: 0.000068460715 xtb: 6.7.1 (edcfbbe)
N           -6.64715022601885       -2.89909417821825       -2.58803724171017
C           -5.74859006713611       -2.34912844546092       -2.13114249161227
C           -4.61584057758121       -1.67210763848729       -1.63290802595189
C           -3.34523596280635       -2.07424723464958       -2.05319839155323
C           -2.22539546064129       -1.38384389631552       -1.64443705034308
C           -2.34298321357413       -0.26688316271970       -0.81342989491328
C           -1.14680268394377        0.47552925012321       -0.38810449409984
C           -1.14044971662280        1.86897821857572       -0.37448633338841
C            0.00003724808137        2.55612385645630        0.00001465093877
C            1.14051166556758        1.86895454450589        0.37450987502996
C            1.14684105792025        0.47550524377898        0.38811231640738
C            2.34300466345997       -0.26692464786244        0.81345493062530
C            2.22538840542328       -1.38387643838090        1.64447017125800
C            3.34521567217350       -2.07427215778992        2.05328012914855
C            4.61583442191027       -1.67213931980613        1.63302532305495
C            5.74856713779867       -2.34913654956533        2.13133027426276
N            6.64711296796792       -2.89906872588410        2.58829319451234
C            4.74571673388003       -0.56661325036833        0.77360808584936
N            6.00197661050032       -0.16728897787882        0.31195992904410
C            6.53354001645114        1.10596187108538        0.41925114413431
C            5.99726799626830        2.23760561371246        1.01492290073097
C            6.75836793032285        3.39180343979025        1.00739984379952
C            8.02654689022701        3.42144214897751        0.43187372854517
C            8.57411600689053        2.29018678833001       -0.14117666987325
C            7.82773218623256        1.11885438909680       -0.14690794022788
C            8.07902799355078       -0.21284499006299       -0.62708593611323
C            9.14757651550778       -0.80364255266597       -1.28887037336785
C            9.05034449325758       -2.13402356816008       -1.64625874591697
C            7.89981546729397       -2.86840865114044       -1.36888913795487
C            6.82357134423825       -2.30194512630134       -0.71223556737462
C            6.92985736327299       -0.97572123486571       -0.32203486814390
C            3.60680148502595        0.12786584927572        0.38657359298822
C            0.00001413934480       -0.20901531232947       -0.00000168668514
C           -3.60676789570947        0.12792465451224       -0.38652688339056
C           -4.74569554513199       -0.56655581803530       -0.77352017010979
N           -6.00194719810551       -0.16719973821407       -0.31187365900409
C           -6.92984483204278       -0.97559713127540        0.32213861208343
C           -6.82355020929548       -2.30178680004911        0.71245298519603
C           -7.89981302105878       -2.86821661627254        1.36910467980623
C           -9.05036903023291       -2.13383047951359        1.64636007545064
C           -9.14761343550897       -0.80348252973064        1.28885196950097
C           -8.07904575615571       -0.21271830774094        0.62706865675709
C           -7.82775394765610        1.11894431170955        0.14678622871348
C           -8.57416622338774        2.29025780304053        0.14090191973864
C           -8.02659134448307        3.42147375690321       -0.43222087034216
C           -6.75837516021792        3.39181534096852       -1.00766390508736
C           -5.99724688956451        2.23763535986734       -1.01503690380732
C           -6.53353106432543        1.10603068525583       -0.41930239245824
H           -3.25742282084413       -2.92621150806471       -2.71141341348721
H           -1.25160701428277       -1.69458492875660       -1.98983066169768
H           -2.02075451124224        2.41352400967054       -0.68080569969354
H            0.00004645585073        3.63606563148371        0.00002134645761
H            2.02082479720484        2.41348115798202        0.68083935057284
H            1.25158830253877       -1.69461344722899        1.98983430884433
H            3.25738110858994       -2.92622448680010        2.71150779192790
H            5.02384749498290        2.21805146343241        1.48142718579617
H            6.36274270958754        4.28859822474189        1.46136416531784
H            8.59027295879812        4.34254647759642        0.44406635982340
H            9.56359187818220        2.30974431430687       -0.57242057319117
H           10.03209799918523       -0.22978797225809       -1.52090552309395
H            9.87176101639884       -2.61404827825050       -2.15731356174932
H            7.84444747920616       -3.90259687178726       -1.67535377129979
H            5.93309184100985       -2.88076250450232       -0.51571714590465
H            3.71316669893419        0.96479337633320       -0.28718143099922
H            0.00000508397193       -1.28872007065777       -0.00000841059449
H           -3.71311272251610        0.96486751237870        0.28721236667218
H           -5.93304978820022       -2.88060128036432        0.51601998199365
H           -7.84443982125003       -3.90237867052870        1.67565697778247
H           -9.87179965627530       -2.61382874971418        2.15741710504667
H          -10.03215928138527       -0.22962799498970        1.52079451225406
H           -9.56366871748426        2.30983048467140        0.57208399016909
H           -8.59034090399152        4.34256215581166       -0.44453473091464
H           -6.36274255697799        4.28857965831576       -1.46168200905984
H           -5.02379598138162        2.21806365097970       -1.48147709512276
