  74
       -119.07467102
 N         -6.9558157968       -3.0756182966       -1.7254729051
 C         -5.9906711179       -2.5083929565       -1.4420624430
 C         -4.8121982061       -1.8345059183       -1.1199913972
 C         -3.5614563339       -2.3713938143       -1.4852563286
 C         -2.4041129710       -1.6786064535       -1.2550577476
 C         -2.4162260035       -0.3979090823       -0.6563606115
 C         -1.1927096071        0.3359543462       -0.3932260867
 C         -1.1717844380        1.7473954958       -0.4069763018
 C          0.0011110173        2.4256083261       -0.1399718937
 C          1.1669139878        1.7455732683        0.1473374244
 C          1.1801244118        0.3328285997        0.1716224169
 C          2.3918075046       -0.4000555013        0.4764928498
 C          2.3580816793       -1.6805159316        1.0807184728
 C          3.5044286293       -2.3691202390        1.3654428570
 C          4.7710040841       -1.8300430653        1.0583383689
 C          5.9325739058       -2.4942103130        1.4489179201
 N          6.8824906369       -3.0565975405        1.7900844848
 C          4.8157624548       -0.5509086145        0.4310824209
 N          6.0518173292        0.0229437658        0.1164071197
 C          6.4725873213        1.2712107002        0.5194437734
 C          5.8190549489        2.2084999186        1.3091061216
 C          6.4833759450        3.3886531644        1.5896412037
 C          7.7664336144        3.6296767950        1.1064706737
 C          8.4316776447        2.6877674994        0.3374195614
 C          7.7858266689        1.4990485547        0.0420418123
 C          8.1599160441        0.3177347398       -0.6937437561
 C          9.2928851778       -0.0507295101       -1.3985885593
 C          9.3069774338       -1.2854934621       -2.0284341851
 C          8.2048889895       -2.1343080228       -1.9751340480
 C          7.0617849085       -1.7869931615       -1.2798705793
 C          7.0554332340       -0.5649672036       -0.6191164984
 C          3.6523757844        0.1353538449        0.1689073221
 C         -0.0096204876       -0.3375420177       -0.1055986600
 C         -3.6609796798        0.1386441339       -0.2967582057
 C         -4.8334304385       -0.5542103018       -0.4990488869
 N         -6.0538414781        0.0128397980       -0.1157615781
 C         -6.9986834844       -0.5714407856        0.6966295695
 C         -6.9548588814       -1.7900093210        1.3621149996
 C         -8.0413567622       -2.1328382665        2.1448986704
 C         -9.1358733676       -1.2830133461        2.2781247771
 C         -9.1705847600       -0.0525312279        1.6409521784
 C         -8.0952483963        0.3111775948        0.8485700878
 C         -7.7795841561        1.4872838183        0.0780130435
 C         -8.4473097906        2.6733638187       -0.1768726362
 C         -7.8433341560        3.6093638814       -1.0015968792
 C         -6.5996874284        3.3658422279       -1.5779038648
 C         -5.9140408120        2.1889525369       -1.3383169751
 C         -6.5055178407        1.2572491551       -0.4949006018
 H         -3.5386684636       -3.3380364122       -1.9668355672
 H         -1.4643728394       -2.1049269930       -1.5708295200
 H         -2.0649195571        2.2984127852       -0.6572696775
 H          0.0054540154        3.5063448549       -0.1538992906
 H          2.0616917328        2.2982660125        0.3874471297
 H          1.4073573186       -2.1085507658        1.3584582366
 H          3.4618937008       -3.3336257465        1.8499813021
 H          4.8319143816        2.0167070287        1.7014497575
 H          5.9977356308        4.1354654952        2.1991919143
 H          8.2529999211        4.5631341378        1.3449488487
 H          9.4330911462        2.8723074527       -0.0197633696
 H         10.1436604034        0.6106335856       -1.4572644496
 H         10.1832888093       -1.5929417265       -2.5784381067
 H          8.2410681543       -3.0823238027       -2.4893658877
 H          6.2062119343       -2.4433263007       -1.2534215707
 H          3.7210834482        1.0852190437       -0.3392006354
 H         -0.0156755525       -1.4163208667       -0.0942057825
 H         -3.7074947537        1.0929706026        0.2057817155
 H         -6.1042408753       -2.4473451936        1.2734929762
 H         -8.0381710985       -3.0781022838        2.6654372400
 H         -9.9670246519       -1.5865918254        2.8961646377
 H        -10.0143978015        0.6095159997        1.7607272378
 H         -9.4189091893        2.8602832600        0.2538682131
 H         -8.3480125339        4.5402870286       -1.2104925177
 H         -6.1629795605        4.1080161256       -2.2287488480
 H         -4.9582232086        1.9948892915       -1.8009634398
