56
 energy: -84.066446678657 gnorm: 0.000034598283 xtb: 6.7.1 (edcfbbe)
C          -10.09964103165056        0.27224945085594       -0.62939846544890
C           -9.60884582297658       -0.74489061157014       -1.46415294387371
C           -8.27928892731808       -1.06179541981379       -1.45834481720098
C           -7.37778038316312       -0.37587884628295       -0.61591728168612
C           -6.00391504916483       -0.68369405497702       -0.58367687049685
C           -5.13480841071114       -0.00273354803054        0.23648704883982
C           -3.70126139655769       -0.32857798618319        0.25628459297485
C           -3.28778847388275       -1.68741251425254        0.23307344734523
C           -1.97027031840794       -2.01983428101879        0.24712741727607
C           -0.96201864191859       -1.02140250877157        0.27407176410077
C            0.39359923166797       -1.33334736144328        0.27762287500329
C            1.37009484437296       -0.33899911867833        0.29498961804046
C            2.75208713629586       -0.64435878740903        0.28969515572810
C            3.70517234495694        0.33957507204184        0.28659334321215
C            5.13766454991893        0.00981106452622        0.25581233828392
C            5.63965831361716       -1.04217109477480        1.05454426980782
C            6.96456570801992       -1.36783236411662        1.03390313951944
C            7.87120011976323       -0.67030193302244        0.20695898720530
C            9.24426586070148       -0.98673314761957        0.15639477011325
C           10.09193456624204       -0.29025010967484       -0.65976104641121
C            9.60456178555007        0.75445780748287       -1.46180880661147
C            8.27888929359763        1.08613870041302       -1.43390997236277
C            7.37774520366152        0.38741723622005       -0.60168715359041
C            6.00696199626504        0.70657497738775       -0.55063361562688
C            3.29260159090483        1.69867429020431        0.30286970361044
C            1.97502446839660        2.03128968018623        0.32113418849129
C            0.96594214669860        1.03324091275769        0.31172093293199
C           -0.38986557261956        1.34505360431659        0.31516605760723
C           -1.36650900656934        0.35070749353161        0.29567122845803
C           -2.74882653478583        0.65543963375188        0.29215753564027
C           -5.63977235175190        1.02389641391273        1.06577549743429
C           -6.96754195807745        1.33854314951859        1.06296476396747
C           -7.87463337931691        0.65429314410942        0.22548359148523
C           -9.25148047019990        0.95668757909500        0.19640323909482
H          -11.15381487347712        0.50931303399314       -0.64714516693293
H          -10.29313879728180       -1.27481134301914       -2.11127093037139
H           -7.89731659972341       -1.84403350508064       -2.09962490475094
H           -5.63469110184125       -1.45939927464129       -1.24019105645408
H           -4.04465822976296       -2.45841288950584        0.22636508765693
H           -1.66520051313879       -3.05705709509321        0.23882651766998
H            0.69714809339624       -2.37146772354825        0.26322442912054
H            3.04402158072381       -1.68493391994980        0.26001080530377
H            4.95861530552935       -1.57507286940364        1.70235166287189
H            7.34055165920008       -2.16857410821722        1.65567974993791
H            9.61460867117144       -1.79238676248077        0.77507462167306
H           11.14303302145983       -0.53880208369255       -0.69483972318297
H           10.28839861483795        1.29369805576409       -2.10168275324466
H            7.89983629049267        1.88964628603499       -2.05012116610013
H            5.63970317479170        1.50297207183771       -1.18306578591839
H            4.05003059365225        2.46896070478098        0.32222558637092
H            1.67063636339214        3.06854229960872        0.34229285406062
H           -0.69334528793631        2.38321062722320        0.32946182178151
H           -3.04127283550814        1.69630048765885        0.29205214368708
H           -4.95878933710970        1.54505789581721        1.72308985751424
H           -7.34592926187569        2.11900796779755        1.70861470378171
H           -9.62455821525895        1.74131826892802        0.83997076767895
