56
 energy: -83.996007144149 gnorm: 0.000130091948 xtb: 6.7.1 (edcfbbe)
C           -9.88272773366138        0.79366145503542       -0.48318074350873
C           -9.07760202315505        1.72608045021175       -1.15537925645425
C           -7.71670590901330        1.59386425803855       -1.15266754421466
C           -7.09678035027634        0.52037352362606       -0.47438107587674
C           -5.70091761543439        0.36097887501019       -0.45122566358450
C           -5.09941452212927       -0.69763880291524        0.20638714461193
C           -3.65185691840393       -0.85981882493342        0.21316144763333
C           -3.06158093378143       -2.12271468251698        0.22822936982779
C           -1.68666438833857       -2.27160958372503        0.21832560475174
C           -0.82832606628735       -1.15561743886640        0.20770339885177
C            0.56228778534453       -1.27873140001513        0.20637938246566
C            1.41851787568200       -0.14572839089014        0.19670841681739
C            2.80015995763459       -0.26829645684458        0.19200904508562
C            3.65158730354949        0.86252663998380        0.19245854632470
C            5.09908178677827        0.69996090619422        0.18717348567352
C            5.93019768518705        1.64076003304479        0.84519232608505
C            7.28553400736545        1.50257511148598        0.85357440230939
C            7.91404325313295        0.42013766731102        0.19608181489894
C            9.31090171657273        0.25141209961412        0.18354078633169
C            9.88127448001138       -0.81195029268203       -0.46475759342695
C            9.07638982258781       -1.75106029459302       -1.12779382425608
C            7.71589698650441       -1.61476872710649       -1.13312954191243
C            7.09614221571088       -0.53054748363916       -0.47199286398107
C            5.70054333013798       -0.36798251813287       -0.45532798493717
C            3.06116687946623        2.12547469425175        0.19446135995387
C            1.68624393469087        2.27417282198580        0.18693322244704
C            0.82794803822445        1.15809875782985        0.19195008327489
C           -0.56262451839449        1.28123093811772        0.19440718350151
C           -1.41884967985916        0.14821191898683        0.20014770011562
C           -2.80048621693667        0.27085911136000        0.19815558611592
C           -5.93042166115661       -1.63009549178609        0.87625328451056
C           -7.28603547502394       -1.49419574329599        0.87924499001995
C           -7.91479433200339       -0.42295953000202        0.20388398425518
C           -9.31209322138531       -0.25868895605946        0.18265754563805
H          -10.95660481243295        0.91235197391766       -0.49697229421044
H           -9.54423039047557        2.54954726748452       -1.67694997695183
H           -7.09341094368056        2.31027553397567       -1.66941542014178
H           -5.09770707787016        1.07377976808261       -0.99495497456636
H           -3.68420078709798       -3.00508436054292        0.21100319774560
H           -1.25307818163122       -3.26156826476522        0.21169664063119
H            1.00640896437173       -2.26410947321247        0.21321636397168
H            3.23491528706747       -1.25649682548202        0.22310453054200
H            5.47180795835077        2.46203785468843        1.37605219575006
H            7.90452374944743        2.22137950112689        1.37251767606155
H            9.92769933924776        0.97740685915918        0.69488589642738
H           10.95476309414569       -0.93470828706269       -0.47095772528889
H            9.54280588684227       -2.58367575666193       -1.63490078752722
H            7.09277964956935       -2.33656698814394       -1.64252851474975
H            5.09752995593733       -1.08695815774067       -0.99107511169492
H            3.68352352796248        3.00770788177622        0.16556195572005
H            1.25251296118973        3.26395347462512        0.17073990002111
H           -1.00674881496643        2.26662725113229        0.19204953920815
H           -3.23518055462420        1.25935431094260        0.21953355617502
H           -5.47180457494130       -2.44319981099998        1.41944121897207
H           -7.90513905957078       -2.20661165623050        1.40683444142000
H           -9.92902258145542       -0.97945456051839        0.70122158660850
