56
 energy: -83.995881053047 gnorm: 0.000062650093 xtb: 6.7.1 (edcfbbe)
C          -10.11488030708364        0.30922872441500       -0.64297242057516
C           -9.65806460163800       -0.79654708692279       -1.37694076392721
C           -8.33792047468287       -1.15054911319532       -1.34457401743178
C           -7.41133762984061       -0.41348622313576       -0.57329280438904
C           -6.04842636421192       -0.75129935597569       -0.52317466311976
C           -5.14419102954492       -0.01832163334895        0.22420483094493
C           -3.73110709593865       -0.37261733171258        0.25554563003166
C           -3.31648279015320       -1.70142451170668        0.19179442602034
C           -1.97392795879860       -2.03479526342571        0.21122421315724
C           -0.97491516213893       -1.04545088112059        0.27814474441413
C            0.38716299684394       -1.35405108351444        0.27211851512588
C            1.38766020468976       -0.34727297986299        0.31709183606513
C            2.74044905353466       -0.65360393630561        0.28631143186402
C            3.73348641450802        0.35401156232604        0.30257242742061
C            5.14627982420140        0.00224949857445        0.23472671757525
C            5.62667632420284       -1.16929051877618        0.87008756265605
C            6.94420384577387       -1.51257781549671        0.81331310681836
C            7.87559851402818       -0.72020679939140        0.10414942945898
C            9.23948749443989       -1.05583931493232        0.01449741142959
C           10.11017111104061       -0.26399118817043       -0.68585631103342
C            9.65174315778743        0.89761021998753       -1.32665201678001
C            8.33297889805420        1.25138661822638       -1.25666156010774
C            7.40922712562400        0.45709300605007       -0.54078627191514
C            6.04770143005114        0.79366032755286       -0.45347108884474
C            3.32000876857612        1.68271148846011        0.37048978867547
C            1.97726495075534        2.01292110670120        0.42207407353522
C            0.97804610964946        1.02224781356371        0.38642203084846
C           -0.38434250044527        1.33012230754954        0.40658339673838
C           -1.38486625426180        0.32412499695950        0.34539375186128
C           -2.73769960999511        0.63181126879495        0.34063029420034
C           -5.62419238735661        1.09547702572881        0.95680129027618
C           -6.94254917041689        1.43943281738788        0.93496831022101
C           -7.87661612797098        0.70580356950355        0.16844298027402
C           -9.24170530942289        1.04387811358521        0.11442830835055
H          -11.16143676354400        0.57549427052345       -0.68100432047506
H          -10.36028647884661       -1.36539251292011       -1.96953628479055
H           -7.98247840159222       -2.00134430543036       -1.90905719654296
H           -5.70642871465760       -1.58834196866158       -1.11502553559837
H           -4.05464481141447       -2.48923433753125        0.15792741271916
H           -1.67674608441731       -3.07334741791157        0.17742933858008
H            0.69482189153953       -2.38893124444902        0.22120802399853
H            3.03876883117913       -1.68878221688467        0.20679526569985
H            4.93599102307363       -1.77831244356714        1.43469144384281
H            7.29893977980700       -2.40197885455512        1.31565922858535
H            9.58841453771128       -1.95225751855181        0.50814504295781
H           11.15576768709452       -0.52844917478413       -0.75130228316752
H           10.35176322948980        1.50988134851460       -1.87708158289541
H            7.97629548525179        2.14560799559346       -1.74857329884786
H            5.70415205795349        1.67850920109108       -0.97027139338268
H            4.05909806042005        2.46919574903961        0.41501113158209
H            1.68031309146779        3.04977542125714        0.49128732792316
H           -0.69185376879790        2.36497736112419        0.45901291928402
H           -3.03555602548354        1.66988165910641        0.36259106191277
H           -4.93271964924966        1.65757688924108        1.56717374180547
H           -7.29598262486332        2.28364186128573        1.51084575096672
H           -9.58952880101122        1.89629497949282        0.68135320105631
