56
 energy: -84.066485096068 gnorm: 0.000059680057 xtb: 6.7.1 (edcfbbe)
C           -9.86996442824116        1.19695816613557       -0.11810423184508
C           -9.02488538149409        2.25366583326566       -0.49445264475734
C           -7.67275252271388        2.06625574322362       -0.56253280823609
C           -7.10210068010733        0.81158920782866       -0.25724013313805
C           -5.71347952016322        0.58670814532962       -0.32154499500722
C           -5.17153240150808       -0.64376897946469       -0.03216437034699
C           -3.72093055932273       -0.86823082608932       -0.11781641984978
C           -3.22603746409602       -2.05680197520547       -0.71759788730156
C           -1.89019802162142       -2.28105047654832       -0.82958336515560
C           -0.94479450104676       -1.34041424196018       -0.34441512890238
C            0.42762644756027       -1.54197681260129       -0.45130519258353
C            1.34138101151163       -0.60469557522453        0.02735896962766
C            2.73973995909971       -0.79701918643594       -0.07906532815818
C            3.63006690082922        0.13488076779908        0.38469998227619
C            5.08101912055480       -0.06934251235956        0.26236878155388
C            5.64180384813158       -1.33639799371697        0.53919520340035
C            6.98696226871583       -1.54432775983109        0.44308022018958
C            7.85685727398303       -0.50293453776566        0.05428658080843
C            9.25093449796877       -0.68445821604644       -0.05400420304480
C           10.06208854293476        0.34812259597322       -0.43549701837004
C            9.51539038551138        1.60832472041268       -0.72742710527544
C            8.16788125323228        1.81606898573673       -0.63063815434245
C            7.30349932377510        0.77217818345132       -0.23560103471922
C            5.91241972211710        0.95830856212042       -0.11727966779348
C            3.13481546546526        1.31806818821045        0.99506306595845
C            1.79932285356313        1.53351251558415        1.12500159911784
C            0.85385630394263        0.58988056072667        0.64547060085274
C           -0.51845514099194        0.79016234141376        0.75490940105738
C           -1.43229425530311       -0.14426738674152        0.27069214765611
C           -2.83049777512852        0.05553210921031        0.36184060915728
C           -6.03231997594336       -1.69945916476895        0.34299386521849
C           -7.38143912656954       -1.50952677801578        0.42199885889494
C           -7.95768261741649       -0.25663811663030        0.12139439927119
C           -9.34802441638303       -0.03021128390321        0.18403373566742
H          -10.93659826484051        1.36352934814930       -0.06979101393949
H           -9.45460684330856        3.21676883757111       -0.73037173445901
H           -7.01866173882793        2.87702933361700       -0.85196810588031
H           -5.07143100529443        1.40081955701203       -0.62796802960156
H           -3.93334207289780       -2.77417044303372       -1.10827736977053
H           -1.52233619348785       -3.18365279123286       -1.29752312657764
H            0.79425888154500       -2.44631923575301       -0.91800977133589
H            3.09573784410326       -1.69645146778104       -0.56195543512802
H            4.98845618106196       -2.13772075080124        0.85318751904577
H            7.40768271814192       -2.51466574908158        0.66782653619940
H            9.66673466057435       -1.65704866031801        0.16998273453775
H           11.12974549069529        0.20221667795438       -0.51673451810714
H           10.17084911045838        2.41260156962588       -1.02984654127500
H            7.74330594192901        2.78493683143183       -0.85423287277573
H            5.50097720508162        1.93001461737394       -0.35311583544164
H            3.84369702966252        2.03848415384604        1.37707413921309
H            1.43149331813613        2.43258794493924        1.59967810358455
H           -0.88520225933637        1.69411226987510        1.22225244176173
H           -3.18865688891204        0.95701757489586        0.83920599781766
H           -5.60458763503864       -2.66054142539480        0.59012468742301
H           -8.03116867758187       -2.32150459866242        0.71816268013804
H           -9.99462019271007       -0.84673939735934        0.47418218268358
