  56
        -84.03118623
 C        -10.0793866465        0.2818781878       -0.6995084361
 C         -9.5839813329       -0.7641724304       -1.4941939759
 C         -8.2575348966       -1.0901128796       -1.4587054322
 C         -7.3643074404       -0.3855558540       -0.6238779751
 C         -5.9940462240       -0.7020799997       -0.5611321247
 C         -5.1332067281       -0.0035158577        0.2527489932
 C         -3.7025635990       -0.3344344261        0.2984610134
 C         -3.2929124110       -1.6941658208        0.3029387214
 C         -1.9765425553       -2.0294902012        0.3292094492
 C         -0.9661771251       -1.0335149914        0.3407886185
 C          0.3885672455       -1.3480944731        0.3439614269
 C          1.3668173682       -0.3557481871        0.3425773768
 C          2.7479587658       -0.6629601125        0.3249876513
 C          3.7016853307        0.3199512046        0.3043152908
 C          5.1330776418       -0.0065320504        0.2531977545
 C          5.6477189959       -1.0728276760        1.0238651457
 C          6.9737562509       -1.3908417725        0.9834485939
 C          7.8693043689       -0.6690950033        0.1657123782
 C          9.2439996334       -0.9731455395        0.0991864364
 C         10.0806275594       -0.2507228918       -0.7051312934
 C          9.5803742777        0.8083602222       -1.4791667068
 C          8.2524637943        1.1275780075       -1.4365505896
 C          7.3628096714        0.4024126458       -0.6155090382
 C          5.9910471775        0.7107343986       -0.5473260771
 C          3.2909912592        1.6794812037        0.3199703760
 C          1.9745746126        2.0137479871        0.3466890115
 C          0.9650295482        1.0169293031        0.3491243119
 C         -0.3894922599        1.3315573701        0.3521956682
 C         -1.3675908388        0.3392578873        0.3428725772
 C         -2.7482889050        0.6475629001        0.3267878280
 C         -5.6427032033        1.0505561528        1.0433788994
 C         -6.9672454128        1.3754379474        1.0090152585
 C         -7.8658540104        0.6732436340        0.1776557194
 C         -9.2391159801        0.9849394052        0.1176459470
 H        -11.1309798095        0.5254223810       -0.7404966548
 H        -10.2620177789       -1.3083108818       -2.1348740626
 H         -7.8718299403       -1.8950445005       -2.0688623644
 H         -5.6199044567       -1.4976965865       -1.1901536370
 H         -4.0521411543       -2.4626002126        0.3065212680
 H         -1.6739918549       -3.0672026095        0.3400728779
 H          0.6899208943       -2.3868385659        0.3412894318
 H          3.0381750620       -1.7039110263        0.2974141779
 H          4.9758517118       -1.6224714763        1.6670194359
 H          7.3598723107       -2.2031307190        1.5832823681
 H          9.6245031635       -1.7895711515        0.6967312361
 H         11.1331959951       -0.4889442003       -0.7517111880
 H         10.2558323252        1.3684043581       -2.1092428096
 H          7.8626356330        1.9421185144       -2.0308038797
 H          5.6137932955        1.5160237482       -1.1619443347
 H          4.0494493053        2.4485525526        0.3313983086
 H          1.6709467134        3.0510284847        0.3648969226
 H         -0.6909244866        2.3702403292        0.3560453933
 H         -3.0379558724        1.6888080790        0.3078899619
 H         -4.9676730155        1.5853710531        1.6961193207
 H         -7.3495905142        2.1784910224        1.6237354238
 H         -9.6154269651        1.7915582429        0.7309537310
