  59
        -85.63920073
 C         -2.6978123686        1.8437572268       -2.2765381696
 C         -1.2703735259        1.6670641099       -1.9115439735
 S          0.0051741655        2.2046547335       -3.0095761068
 C          1.2785483787        1.6701004107       -1.9065287751
 C          2.7065838160        1.8514556973       -2.2671074989
 C          0.7162691394        1.1306307832       -0.7838433901
 P          1.2953984531        0.2199274287        0.6425537305
 C          2.9393910076        0.9220314099        1.0210944057
 C          4.0173151462        0.1168739612        1.3894354814
 C          5.2084188101        0.7011980940        1.7731350172
 C          5.3254321599        2.0823360216        1.8301986619
 C          4.2403136405        2.8859225044        1.5037977551
 C          3.0468516225        2.3106622513        1.1225331152
 C          1.6022578770       -1.4942279470        0.1544859459
 C          1.6947698583       -1.8525437909       -1.1943878112
 C          1.7793353139       -3.1816679810       -1.5474278228
 C          1.7577313976       -4.1725408716       -0.5740793148
 C          1.6522118936       -3.8224716480        0.7660901335
 C          1.5624381797       -2.4974281779        1.1306310911
 C         -0.7111460026        1.1289311110       -0.7866276243
 P         -1.2952290873        0.2229878144        0.6402273510
 C         -1.6058396459       -1.4929031764        0.1610492023
 C         -1.6790752651       -1.8642330069       -1.1852475170
 C         -1.7686841820       -3.1963476395       -1.5257757797
 C         -1.7709244481       -4.1771270438       -0.5420438081
 C         -1.6842574331       -3.8141535538        0.7960079074
 C         -1.5896439854       -2.4860819781        1.1480680891
 C         -2.9379734550        0.9302644508        1.0139106858
 C         -3.0389720493        2.3192252208        1.1182177635
 C         -4.2311758079        2.8996780744        1.4952752666
 C         -5.3219088979        2.1008220582        1.8145767160
 C         -5.2117817038        0.7193012336        1.7542479774
 C         -4.0219000716        0.1298230486        1.3746168647
 H         -2.8554371206        1.6158917450       -3.3304279530
 H         -3.0228321315        2.8723632194       -2.1053417410
 H         -3.3162169327        1.1852339333       -1.6679161075
 H          3.0275890587        2.8814039370       -2.0957959382
 H          3.3256700941        1.1956904436       -1.6560815975
 H          2.8684410722        1.6234550811       -3.3203849709
 H          3.9225530784       -0.9587411428        1.3352168000
 H          6.0521021040        0.0778703119        2.0322937976
 H          6.2568929063        2.5327225720        2.1386304260
 H          4.3300804449        3.9612967346        1.5561579462
 H          2.1902663201        2.9223385812        0.8709711813
 H          1.7040192899       -1.0812121268       -1.9512521764
 H          1.8603955066       -3.4538277770       -2.5900984250
 H          1.8199665816       -5.2117391797       -0.8589136036
 H          1.6348728305       -4.5925374649        1.5237848493
 H          1.4729641554       -2.2155715136        2.1714299886
 H         -1.6699228864       -1.1006817759       -1.9500240751
 H         -1.8350307001       -3.4788595935       -2.5667011862
 H         -1.8371149173       -5.2187327594       -0.8170099471
 H         -1.6849056458       -4.5763146203        1.5618886358
 H         -1.5130393179       -2.1938974372        2.1871249777
 H         -2.1782972935        2.9270247002        0.8711072900
 H         -4.3160712050        3.9753897254        1.5492775556
 H         -6.2525371576        2.5551799104        2.1197014753
 H         -6.0597323715        0.0995807521        2.0081121953
 H         -3.9324154834       -0.9462186604        1.3194421843
