  59
        -85.63920073
 C         -2.6978123686        1.8437572268       -2.2765381696
 C         -1.2703735259        1.6670641099       -1.9115439735
 S          0.0051741655        2.2046547335       -3.0095761068
 C          1.2785483787        1.6701004107       -1.9065287751
 C          2.7065838160        1.8514556973       -2.2671074989
 C          0.7162691394        1.1306307832       -0.7838433901
 P          1.2953984531        0.2199274287        0.6425537305
 C          2.9393910076        0.9220314099        1.0210944057
 C          4.0173151462        0.1168739612        1.3894354814
 C          5.2084188101        0.7011980940        1.7731350172
 C          5.3254321599        2.0823360216        1.8301986619
 C          4.2403136405        2.8859225044        1.5037977551
 C          3.0468516225        2.3106622513        1.1225331152
 C          1.6022578770       -1.4942279470        0.1544859459
 C          1.6947698583       -1.8525437909       -1.1943878112
 C          1.7793353139       -3.1816679810       -1.5474278228
 C          1.7577313976       -4.1725408716       -0.5740793148
 C          1.6522118936       -3.8224716480        0.7660901335
 C          1.5624381797       -2.4974281779        1.1306310911
 C         -0.7111460026        1.1289311110       -0.7866276243
 P         -1.2952290873        0.2229878144        0.6402273510
 C         -1.6058396459       -1.4929031764        0.1610492023
 C         -1.6790752651       -1.8642330069       -1.1852475170
 C         -1.7686841820       -3.1963476395       -1.5257757797
 C         -1.7709244481       -4.1771270438       -0.5420438081
 C         -1.6842574331       -3.8141535538        0.7960079074
 C         -1.5896439854       -2.4860819781        1.1480680891
 C         -2.9379734550        0.9302644508        1.0139106858
 C         -3.0389720493        2.3192252208        1.1182177635
 C         -4.2311758079        2.8996780744        1.4952752666
 C         -5.3219088979        2.1008220582        1.8145767160
 C         -5.2117817038        0.7193012336        1.7542479774
 C         -4.0219000716        0.1298230486        1.3746168647
 H         -2.8554371206        1.6158917450       -3.3304279530
 H         -3.0228321315        2.8723632194       -2.1053417410
 H         -3.3162169327        1.1852339333       -1.6679161075
 H          3.0275890587        2.8814039370       -2.0957959382
 H          3.3256700941        1.1956904436       -1.6560815975
 H          2.8684410722        1.6234550811       -3.3203849709
 H          3.9225530784       -0.9587411428        1.3352168000
 H          6.0521021040        0.0778703119        2.0322937976
 H          6.2568929063        2.5327225720        2.1386304260
 H          4.3300804449        3.9612967346        1.5561579462
 H          2.1902663201        2.9223385812        0.8709711813
 H          1.7040192899       -1.0812121268       -1.9512521764
 H          1.8603955066       -3.4538277770       -2.5900984250
 H          1.8199665816       -5.2117391797       -0.8589136036
 H          1.6348728305       -4.5925374649        1.5237848493
 H          1.4729641554       -2.2155715136        2.1714299886
 H         -1.6699228864       -1.1006817759       -1.9500240751
 H         -1.8350307001       -3.4788595935       -2.5667011862
 H         -1.8371149173       -5.2187327594       -0.8170099471
 H         -1.6849056458       -4.5763146203        1.5618886358
 H         -1.5130393179       -2.1938974372        2.1871249777
 H         -2.1782972935        2.9270247002        0.8711072900
 H         -4.3160712050        3.9753897254        1.5492775556
 H         -6.2525371576        2.5551799104        2.1197014753
 H         -6.0597323715        0.0995807521        2.0081121953
 H         -3.9324154834       -0.9462186604        1.3194421843
  59
        -85.63593904
 C         -2.6338176743        0.8267133310       -2.6703445271
 C         -1.2369073356        1.0109534260       -2.2054494088
 S          0.0038522648        1.6706307524       -3.2773728785
 C          1.2448850151        1.5633597313       -2.0224874845
 C          2.6285278961        2.0112725159       -2.3229617452
 C          0.6982900367        1.0650824447       -0.8728647330
 P          1.2849259027        0.3468697507        0.6689102527
 C          2.8270374310        1.2369470312        1.0628884396
 C          3.9294160153        0.5754350187        1.6003942549
 C          5.0467840752        1.2962364088        1.9741728550
 C          5.0577913565        2.6786679962        1.8574251023
 C          3.9427308926        3.3443155497        1.3671413087
 C          2.8244055763        2.6307816907        0.9884850707
 C          1.7805749751       -1.3603209389        0.3735703491
 C          2.6308498010       -1.6751222261       -0.6957650972
 C          2.8529539096       -2.9951229279       -1.0239769426
 C          2.2425151297       -4.0139142067       -0.3028550896
 C          1.3979432317       -3.7039689971        0.7595895864
 C          1.1609822138       -2.3896466445        1.0915739015
 C         -0.7007785674        0.7777090873       -0.9748500644
 P         -1.2292950907       -0.1212421560        0.4818482717
 C         -1.9618063421       -1.6705695924       -0.1104435527
 C         -1.2587188377       -2.3528194797       -1.1088352362
 C         -1.7705852364       -3.5169434146       -1.6416864344
 C         -2.9844138872       -4.0154305035       -1.1912495314
 C         -3.6892595658       -3.3334025531       -0.2073370303
 C         -3.1857997394       -2.1688108834        0.3354399021
 C         -2.5585590512        0.8069962577        1.2690789441
 C         -3.0534978605        0.3625213251        2.5041925935
 C         -4.0092823132        1.0982746472        3.1704441711
 C         -4.4569314021        2.3030369145        2.6431696423
 C         -3.9243972291        2.7760822592        1.4486039763
 C         -2.9683221314        2.0487342765        0.7736368070
 H         -3.1873094823        0.2596921748       -1.9219359120
 H         -2.6564532675        0.2856349169       -3.6164004912
 H         -3.1333045238        1.7855088063       -2.8237833308
 H          2.6923244811        3.1015476108       -2.3424506313
 H          3.3129859962        1.6437159004       -1.5607146215
 H          2.9446845329        1.6439104798       -3.2993354567
 H          3.9104014181       -0.5021615463        1.6919421876
 H          5.9123735521        0.7806621787        2.3642009459
 H          5.9303551041        3.2381391427        2.1596642742
 H          3.9484428973        4.4217180001        1.2881087239
 H          1.9467803493        3.1336622127        0.6043077910
 H          3.0988649725       -0.8765931179       -1.2549032667
 H          3.5056629353       -3.2386303083       -1.8505814842
 H          2.4223507302       -5.0449108603       -0.5667036526
 H          0.9251923431       -4.4971783549        1.3202786494
 H          0.4987376301       -2.1327588784        1.9092716144
 H         -0.3103063082       -1.9641919302       -1.4525630515
 H         -1.2218134940       -4.0402764879       -2.4109954410
 H         -3.3830279110       -4.9290731937       -1.6055065039
 H         -4.6381952032       -3.7164427474        0.1391020647
 H         -3.7450801034       -1.6373533279        1.0910343519
 H         -2.6811935001       -0.5642883013        2.9213567917
 H         -4.4031503991        0.7434493344        4.1119613719
 H         -5.2011975959        2.8805066364        3.1697905547
 H         -4.2581484116        3.7229167056        1.0492756218
 H         -2.5440572368        2.4171209572       -0.1486705256
  59
        -85.63591208
 C         -2.4632505601        0.8666524331       -3.0867707640
 C         -1.1012838122        0.7889477437       -2.5004953595
 S          0.2277328674        1.6612026467       -3.2767273915
 C          1.3924291878        1.0991302491       -2.0733663223
 C          2.8200917019        1.4961918698       -2.1433291019
 C          0.7714545640        0.2724929874       -1.1857697100
 P          1.1923990594       -0.3837963984        0.4276295159
 C          1.9343358195        0.9950668664        1.3421733335
 C          3.1499518640        0.9131965866        2.0213545779
 C          3.6715547956        2.0374355489        2.6282576017
 C          2.9938543547        3.2488998801        2.5727330336
 C          1.7883560163        3.3340316572        1.8911486583
 C          1.2599302614        2.2190295871        1.2765312776
 C          2.4853126529       -1.6228008207        0.2288375451
 C          2.9273230916       -2.0150617388       -1.0383175157
 C          3.8468877779       -3.0341784165       -1.1596869105
 C          4.3083081916       -3.7051498523       -0.0321508849
 C          3.8275923457       -3.3582460135        1.2241977766
 C          2.9083253728       -2.3404316448        1.3575015258
 C         -0.6343867020        0.1136674863       -1.4080771991
 P         -1.3227371699       -0.6962825683        0.0450726255
 C         -2.8925286798       -1.4346751610       -0.5213448354
 C         -4.0317032114       -1.4254873700        0.2806007583
 C         -5.1769370868       -2.0687457250       -0.1471886195
 C         -5.1821964253       -2.7598388139       -1.3500707372
 C         -4.0336925126       -2.8114781748       -2.1277636218
 C         -2.8874596269       -2.1680526375       -1.7087264690
 C         -1.7943813270        0.5403989901        1.2676660181
 C         -2.5749954436        1.6458723694        0.9021344237
 C         -2.7698753536        2.6700507111        1.8037382960
 C         -2.2015581850        2.6133247040        3.0704784536
 C         -1.4265864516        1.5162908591        3.4363475728
 C         -1.2168183134        0.4918365835        2.5421092546
 H         -2.7015035914        1.8944260249       -3.3604531086
 H         -3.1989627952        0.5046850610       -2.3712469686
 H         -2.5364835338        0.2575466560       -3.9903660181
 H          2.9137411959        2.5773028778       -2.2467399947
 H          3.3237477582        1.1808822864       -1.2298764483
 H          3.3212792045        1.0359400917       -2.9970556594
 H          3.6892936777       -0.0216471686        2.0582925447
 H          4.6149709691        1.9717506336        3.1506648212
 H          3.4075687239        4.1216748221        3.0546769017
 H          1.2598120549        4.2747036730        1.8394303408
 H          0.3192359489        2.2808522482        0.7475492799
 H          2.5582844652       -1.4966286101       -1.9112368665
 H          4.2084508855       -3.3164969596       -2.1378894978
 H          5.0238432705       -4.5066256567       -0.1347685503
 H          4.1664006205       -3.8963476763        2.0978713388
 H          2.5099895364       -2.0810132162        2.3299910534
 H         -4.0179256606       -0.8876956550        1.2189492818
 H         -6.0693048053       -2.0367024769        0.4609451054
 H         -6.0773629752       -3.2680001774       -1.6759181802
 H         -4.0355998861       -3.3605247739       -3.0581659660
 H         -1.9836477760       -2.1984564539       -2.3026883822
 H         -3.0109396931        1.6846683159       -0.0868219353
 H         -3.3690615492        3.5243950424        1.5217553358
 H         -2.3598212005        3.4196475653        3.7702354846
 H         -0.9873267604        1.4725843816        4.4223638501
 H         -0.6100800096       -0.3651320991        2.8089252139
  59
        -85.63589011
 C         -2.4633380857        0.8753209882       -3.0841729120
 C         -1.0996997337        0.7896919496       -2.5028061224
 S          0.2327512975        1.6524212865       -3.2832878249
 C          1.3967645210        1.0846186805       -2.0817171617
 C          2.8280842361        1.4675445502       -2.1584836252
 C          0.7726565428        0.2629584358       -1.1915220928
 P          1.1900516496       -0.3886272359        0.4246433307
 C          1.9223494840        0.9955430001        1.3399460672
 C          3.1286014559        0.9148793700        2.0355383620
 C          3.6439178626        2.0409616718        2.6446162287
 C          2.9689673311        3.2530988199        2.5746052354
 C          1.7727004505        3.3369794678        1.8766931779
 C          1.2505256786        2.2200843805        1.2601481811
 C          2.4885161125       -1.6227200553        0.2339527188
 C          2.9398712977       -2.0113281726       -1.0311974611
 C          3.8654450117       -3.0252479538       -1.1484350112
 C          4.3236335875       -3.6955477702       -0.0190069016
 C          3.8329278795       -3.3533879177        1.2346714754
 C          2.9078633014       -2.3401899674        1.3639821702
 C         -0.6345532657        0.1124553078       -1.4108963953
 P         -1.3247748067       -0.6982647022        0.0409629291
 C         -2.8987972177       -1.4268499087       -0.5266539807
 C         -4.0395484503       -1.4084786166        0.2729107334
 C         -5.1889427731       -2.0427580521       -0.1571144103
 C         -5.1969841732       -2.7347009973       -1.3595656380
 C         -4.0472097335       -2.7959540160       -2.1346431684
 C         -2.8970057691       -2.1609094926       -1.7137086425
 C         -1.7876198812        0.5344630523        1.2709178506
 C         -2.5674033221        1.6438214889        0.9160249566
 C         -2.7521288027        2.6645845552        1.8236667869
 C         -2.1737756185        2.6008800465        3.0855904978
 C         -1.4001135909        1.4996385278        3.4411601194
 C         -1.2011691107        0.4781854846        2.5411123143
 H         -2.6931524909        1.9029958139       -3.3655038105
 H         -3.1990722703        0.5263110463       -2.3621624189
 H         -2.5464762989        0.2588335466       -3.9820324106
 H          3.3274336824        1.1689287872       -1.2368253214
 H          3.3265704784        0.9820375958       -3.0001494431
 H          2.9319276353        2.5449038388       -2.2878044617
 H          3.6659594107       -0.0205348005        2.0839129124
 H          4.5799162553        1.9759449102        3.1802795982
 H          3.3769840066        4.1273560999        3.0588105188
 H          1.2468627689        4.2784657394        1.8137788163
 H          0.3169702613        2.2812125317        0.7186360477
 H          2.5723255762       -1.4943750355       -1.9055014278
 H          4.2341502109       -3.3044603224       -2.1248666241
 H          5.0438698523       -4.4931084732       -0.1187470507
 H          4.1688240732       -3.8910035242        2.1097552134
 H          2.5027661498       -2.0843077758        2.3345971375
 H         -4.0233736321       -0.8710763355        1.2113976836
 H         -6.0821774946       -2.0038152866        0.4493016262
 H         -6.0954451896       -3.2360985030       -1.6869414968
 H         -4.0513262420       -3.3460560033       -3.0644579766
 H         -1.9922807894       -2.1984309218       -2.3059143519
 H         -3.0110580509        1.6885588905       -0.0692980887
 H         -3.3508846230        3.5219974155        1.5501585624
 H         -2.3235628263        3.4050907472        3.7896196918
 H         -0.9535494282        1.4500441302        4.4236423422
 H         -0.5965649865       -0.3828097521        2.7999150725
  59
        -85.63588901
 C         -2.7901453847        1.5997635882       -2.1298756411
 C         -1.3684915410        1.1831693982       -2.0476632077
 S         -0.1918263990        1.7028146680       -3.2587879258
 C          1.1158986016        0.8028790480       -2.4772206113
 C          2.4747234074        0.8238430733       -3.0756084216
 C          0.6349314907        0.1550941577       -1.3748070682
 P          1.3046055214       -0.6530079491        0.0868558651
 C          1.8660540527        0.6004872168        1.2528898421
 C          1.3026181216        0.6533057832        2.5322851169
 C          1.6079907322        1.6936842438        3.3798369247
 C          2.4663681266        2.7067859950        2.9600712315
 C          3.0169534334        2.6654193423        1.6856286636
 C          2.7258539433        1.6239045523        0.8305641764
 C          2.8180711754       -1.4996841712       -0.4773135491
 C          3.9543069713       -1.5662791933        0.3266025133
 C          5.0465039960       -2.3026458520       -0.0889487811
 C          4.9994557885       -3.0097321211       -1.2816954749
 C          3.8518766707       -2.9823958513       -2.0619251348
 C          2.7581892569       -2.2465809753       -1.6547066351
 C         -0.7650703288        0.3541425076       -1.1506547684
 P         -1.2100094309       -0.3144861610        0.4511119694
 C         -2.4423225672       -1.6033975318        0.1974695378
 C         -2.8153913034       -2.0058306402       -1.0888034762
 C         -3.6802372869       -3.0657104990       -1.2533993711
 C         -4.1559405321       -3.7652173122       -0.1493417250
 C         -3.7455317040       -3.4036740253        1.1276673631
 C         -2.8802510578       -2.3459467097        1.3041507133
 C         -2.0315924374        1.0196093649        1.3620724598
 C         -1.3752829219        2.2551905142        1.3782214868
 C         -1.9595206536        3.3395155914        1.9973837812
 C         -3.2008854809        3.2104789029        2.6043128563
 C         -3.8580971333        1.9865384200        2.5808081408
 C         -3.2822245527        0.8929692354        1.9673595365
 H         -3.2944689006        1.1291241527       -2.9763872905
 H         -2.8688587262        2.6798136883       -2.2548467789
 H         -3.3012091966        1.3081678803       -1.2125940821
 H          2.5088999340        0.2281299373       -3.9898792240
 H          2.7622565537        1.8426340089       -3.3343531356
 H          3.1974935063        0.4130010191       -2.3737831045
 H          0.6282417106       -0.1363655420        2.8404798045
 H          1.1800351699        1.7275606730        4.3711146756
 H          2.7016216271        3.5245114658        3.6240849405
 H          3.6793927299        3.4551787145        1.3603449657
 H          3.1508390431        1.5852045862       -0.1627018294
 H          3.9804509988       -1.0154842885        1.2571853986
 H          5.9377803318       -2.3316999138        0.5209721943
 H          5.8526910267       -3.5910847848       -1.5976610192
 H          3.8128066488       -3.5423886973       -2.9849306596
 H          1.8550534110       -2.2165362106       -2.2498816976
 H         -2.4360794796       -1.4642648772       -1.9431218654
 H         -3.9871561695       -3.3581216721       -2.2472040535
 H         -4.8279549568       -4.5985682815       -0.2859336514
 H         -4.0968951893       -3.9608879616        1.9841244427
 H         -2.5383012335       -2.0720635335        2.2940317378
 H         -0.4057807575        2.3471915338        0.9079851964
 H         -1.4472694183        4.2904900190        2.0089725566
 H         -3.6575155983        4.0588846907        3.0909789121
 H         -4.8278481270        1.8869016741        3.0465585694
 H         -3.8042268238       -0.0520461328        1.9415556817
  59
        -85.63564430
 C         -2.3996144341        2.3902369515       -2.0690729867
 C         -1.1013144397        1.6805938695       -1.9372395408
 S          0.1262374042        1.8915903280       -3.1826824524
 C          1.2259388404        0.7608568018       -2.4025813484
 C          2.5341914877        0.4413576906       -3.0269831366
 C          0.6455230309        0.2643015728       -1.2661069850
 P          1.1938403396       -0.5556802480        0.2487068531
 C          2.0142800667        0.6463927081        1.2960756267
 C          1.3404154002        1.1932545027        2.3961048034
 C          1.8859526029        2.2478260175        3.0905443304
 C          3.1086990699        2.7868000050        2.6982307651
 C          3.7735434627        2.2607626658        1.5960068112
 C          3.2378646509        1.2068555741        0.8909256223
 C          2.4341293001       -1.7717926413       -0.2487409607
 C          2.1558524985       -2.5642519564       -1.3693162092
 C          2.9976129401       -3.6024322127       -1.7056601802
 C          4.0993887803       -3.8915308831       -0.9109592231
 C          4.3480365395       -3.1410270712        0.2327806711
 C          3.5080090519       -2.1046115808        0.5810270725
 C         -0.6580584597        0.8042390818       -1.0017136687
 P         -1.2069867778        0.1144572475        0.5877561041
 C         -1.9835249942       -1.4415743336        0.1098399613
 C         -3.1716393061       -1.4333456374       -0.6253990013
 C         -3.7244373952       -2.6267782532       -1.0431148247
 C         -3.1013391810       -3.8310301643       -0.7455974668
 C         -1.9147230567       -3.8397847304       -0.0235761789
 C         -1.3582078779       -2.6510749161        0.4024461534
 C         -2.5039212210        1.1903620307        1.2262695079
 C         -2.2099565704        2.5616743688        1.3145331753
 C         -3.0864338319        3.4158900479        1.9448154395
 C         -4.2437529029        2.9206110983        2.5343727587
 C         -4.5086036285        1.5542143676        2.5012186891
 C         -3.6371748076        0.6885190217        1.8788679139
 H         -2.9274148040        2.0540986876       -2.9626048967
 H         -2.2422897790        3.4650342882       -2.1618962576
 H         -3.0203991683        2.1974571192       -1.1974392194
 H          2.4060612904       -0.2025669333       -3.8995895558
 H          3.0354394680        1.3515361195       -3.3549659835
 H          3.1663593390       -0.0780138630       -2.3094566729
 H          0.3900382707        0.7667303483        2.6975026064
 H          1.3660861812        2.6572675990        3.9446696321
 H          3.5362842233        3.6127003118        3.2456038143
 H          4.7175028303        2.6862636856        1.2858399877
 H          3.7493752165        0.8001282354        0.0294669976
 H          1.2903063146       -2.3282842486       -1.9747022513
 H          2.7954266784       -4.1980711181       -2.5841536515
 H          4.7537588297       -4.7096547881       -1.1714714859
 H          5.1979383802       -3.3767050326        0.8567101230
 H          3.6877380012       -1.5223194955        1.4748990213
 H         -3.6448207611       -0.4905714489       -0.8627414351
 H         -4.6435347188       -2.6219658842       -1.6112057519
 H         -3.5370975947       -4.7609021293       -1.0786772717
 H         -1.4273698993       -4.7760660323        0.2052838276
 H         -0.4345345632       -2.6463696327        0.9703440571
 H         -1.3011861139        2.9326535289        0.8584833515
 H         -2.8702896169        4.4737921026        1.9879126918
 H         -4.9269904358        3.5908183387        3.0329878801
 H         -5.3997807157        1.1690627141        2.9751586277
 H         -3.8339349911       -0.3750103193        1.8618260081
