  83
       -131.11764383
 C         12.0030734957       -0.3826778824       -0.2792524470
 C         11.7022214832        0.5323538225        0.7172993455
 C         10.3993705359        0.9497467602        0.9056220420
 C          9.3784990989        0.4491584762        0.0981774824
 C          8.0269057636        0.9295993843        0.3241693701
 N          7.7333352554        2.1394763405        0.7279959228
 N          6.4087989245        2.2558370425        0.7955916850
 C          5.8704784338        1.1171659289        0.4385702571
 C          4.4430009753        0.8598233682        0.4189293219
 C          3.8987151313       -0.3856004859        0.7266922976
 C          2.5313755648       -0.5711327355        0.7016984411
 C          1.6704891145        0.4774947224        0.3830087820
 C          0.2168240774        0.2758914696        0.3539505753
 C         -0.3354086807       -0.8912548378       -0.1733693478
 C         -1.7014115106       -1.0671263378       -0.2167898676
 C         -2.5622693005       -0.0801418494        0.2661480369
 C         -3.9921374932       -0.3261236181        0.1919763985
 N         -4.5180381487       -1.5190845512        0.3199791369
 C         -5.8606391703       -1.3523182175        0.2055927803
 C         -6.8754789115       -2.3433766822        0.3159827922
 C         -6.5574541090       -3.6790928078        0.5825813825
 C         -7.5525723902       -4.6140625723        0.7202069936
 C         -8.8833795664       -4.2197595741        0.5969541454
 C         -9.2068898832       -2.9102483951        0.3286748925
 C         -8.2182867876       -1.9268861654        0.1704188833
 C         -8.5251860349       -0.5431641068       -0.1489137247
 C         -9.8405893245       -0.1182560322       -0.3830835595
 C        -10.1383795295        1.1782218603       -0.7299254705
 C         -9.1188228351        2.1132291722       -0.8754618754
 C         -7.8172195622        1.7404349307       -0.6476110085
 C         -7.4946421619        0.4302615262       -0.2657929108
 C         -6.1636139892       -0.0100799598       -0.0190343835
 N         -4.9513984006        0.6424231288       -0.0137435957
 C         -4.6906585148        2.0161348900       -0.1858720547
 C         -5.1387636671        2.9350370497        0.7587084945
 C         -4.8491214242        4.2772468622        0.5980746073
 C         -4.1106456031        4.7051753990       -0.4936343813
 C         -3.6627361721        3.7885364154       -1.4300801098
 C         -3.9501431519        2.4437293256       -1.2813237976
 C         -2.0133282166        1.0724693028        0.8260552596
 C         -0.6450819707        1.2466634062        0.8607847905
 C          2.2210182918        1.7278083073        0.1007959380
 C          3.5856992878        1.9184180373        0.1184520043
 N          6.8650846444        0.2202549774        0.1216107097
 C          6.7245008501       -1.1092220115       -0.3121327763
 C          7.3482028654       -2.1353742287        0.3890727419
 C          7.2077927487       -3.4404093425       -0.0453590303
 C          6.4468623370       -3.7246648258       -1.1675668456
 C          5.8247614073       -2.6997534992       -1.8615995225
 C          5.9618846343       -1.3900163739       -1.4406668258
 C          9.6892693699       -0.4527023554       -0.9171578888
 C         10.9962911349       -0.8658002357       -1.0981143260
 H         13.0214552324       -0.7118166764       -0.4235934337
 H         12.4873151904        0.9211626302        1.3486982797
 H         10.1475092664        1.6663653101        1.6715523930
 H          4.5398628886       -1.2077213528        1.0091851651
 H          2.1221469281       -1.5364625851        0.9610264669
 H          0.3154126230       -1.6548109420       -0.5736808943
 H         -2.1309217818       -1.9674616198       -0.6276129791
 H         -5.5149470232       -3.9387658953        0.6816611454
 H         -7.3121839084       -5.6462948469        0.9280607455
 H         -9.6709877162       -4.9502810911        0.7136202983
 H        -10.2507246440       -2.6520122645        0.2457725510
 H        -10.6532762283       -0.8219458909       -0.3027388637
 H        -11.1644085012        1.4676443486       -0.9031067324
 H         -9.3478707507        3.1265384733       -1.1708837361
 H         -7.0291811236        2.4644774699       -0.7810142644
 H         -5.7114920833        2.5889916909        1.6068565303
 H         -5.1976709588        4.9901746043        1.3300410884
 H         -3.8846600382        5.7538396367       -0.6133261349
 H         -3.0879748948        4.1205484201       -2.2813059270
 H         -3.6023662595        1.7196567396       -2.0029296787
 H         -2.6511272111        1.8277040686        1.2592513771
 H         -0.2357607677        2.1378474023        1.3132827512
 H          1.5695156052        2.5501126748       -0.1556298373
 H          4.0150134989        2.8837194628       -0.0996062791
 H          7.9375567050       -1.9033281153        1.2638940112
 H          7.6923175172       -4.2376043516        0.4976802765
 H          6.3389363678       -4.7453179443       -1.5015872072
 H          5.2327746644       -2.9185041873       -2.7373478321
 H          5.4830478457       -0.5832034462       -1.9758044382
 H          8.9180230144       -0.8184409160       -1.5790467074
 H         11.2289347034       -1.5663869206       -1.8866743121
  83
       -131.11753549
 C         12.0337520527       -0.2394350060        0.0196245991
 C         11.0737099889       -0.6525920933        0.9279997203
 C          9.7494170449       -0.2926450670        0.7587104746
 C          9.3736964638        0.4835726629       -0.3354022964
 C          8.0027805972        0.9064003903       -0.5591984183
 N          7.6671367130        2.0502188447       -1.1002520809
 N          6.3393117456        2.1344725519       -1.1277042856
 C          5.8395758639        1.0413039779       -0.6078827879
 C          4.4186925586        0.7700490935       -0.5031096116
 C          3.5533620101        1.8536007679       -0.3468885506
 C          2.1931133855        1.6539896978       -0.2565895218
 C          1.6525695145        0.3696033160       -0.3291223055
 C          0.2026167178        0.1624954958       -0.2341154732
 C         -0.5641716290        0.9051622226        0.6621072991
 C         -1.9309006632        0.7347296719        0.7417936817
 C         -2.5757231131       -0.1813004429       -0.0877820533
 C         -4.0133112365       -0.3926037710       -0.0685276631
 N         -4.5709026765       -1.5647935616       -0.2419255848
 C         -5.9108916767       -1.3595810567       -0.1564142157
 C         -6.9498920819       -2.3283410294       -0.2372219230
 C         -6.6627199106       -3.6864291065       -0.4094150421
 C         -7.6774538916       -4.6093912190       -0.4526680392
 C         -8.9970810792       -4.1820764912       -0.3197241163
 C         -9.2910409428       -2.8487295625       -0.1554499728
 C         -8.2826673156       -1.8734853784       -0.1149126748
 C         -8.5628236763       -0.4546467438        0.0234986275
 C         -9.8762500183        0.0343632607        0.0639395815
 C        -10.1527184226        1.3782205383        0.1499426828
 C         -9.1145805258        2.3035714192        0.1823943932
 C         -7.8134759471        1.8663179697        0.1527441893
 C         -7.5096465708        0.4986133020        0.0940476429
 C         -6.1801538260       -0.0087079248        0.0591093785
 N         -4.9481767175        0.6016609041        0.1265901454
 C         -4.6469635476        1.9600187636        0.3459331833
 C         -4.9699795693        2.5586736431        1.5603165693
 C         -4.6373523212        3.8823992440        1.7799975634
 C         -3.9785908227        4.6075036093        0.7998172802
 C         -3.6547191198        4.0084921064       -0.4060390895
 C         -3.9869443718        2.6860359192       -0.6382816905
 C         -1.8078680508       -0.9506898666       -0.9628842879
 C         -0.4422754169       -0.7800134352       -1.0350117294
 C          2.5203269209       -0.7060123730       -0.5086538937
 C          3.8841259849       -0.5134962165       -0.5968342651
 N          6.8654250935        0.2092641689       -0.2205925815
 C          6.7733321939       -1.0584228745        0.3798888939
 C          6.0727574056       -1.2091667444        1.5717975536
 C          5.9815948606       -2.4594126576        2.1548095643
 C          6.5889245008       -3.5530037712        1.5594185963
 C          7.2889889419       -3.3979322997        0.3740773948
 C          7.3824937153       -2.1540009878       -0.2221397448
 C         10.3479529984        0.9150507046       -1.2354515872
 C         11.6684254452        0.5523922053       -1.0576875689
 H         13.0658962223       -0.5262751042        0.1565744430
 H         11.3570925161       -1.2552294252        1.7784954320
 H          9.0162123489       -0.6002316154        1.4896111845
 H          3.9741347067        2.8459501337       -0.3043361892
 H          1.5343033999        2.5032192816       -0.1506671095
 H         -0.0792844634        1.6092735650        1.3223310099
 H         -2.4913995090        1.3027590457        1.4687415626
 H         -5.6269784409       -3.9751671247       -0.4984860935
 H         -7.4605825282       -5.6593055036       -0.5834884403
 H         -9.7992589750       -4.9056234785       -0.3459572058
 H        -10.3268099727       -2.5661274921       -0.0533474483
 H        -10.7057525009       -0.6525240810        0.0163607459
 H        -11.1780292774        1.7168506096        0.1778986692
 H         -9.3293026417        3.3611506587        0.2252926333
 H         -7.0130158422        2.5889855662        0.1578152647
 H         -5.4806403288        1.9820084246        2.3179893022
 H         -4.8888079039        4.3469321899        2.7216476897
 H         -3.7167996787        5.6394097002        0.9776932686
 H         -3.1417974720        4.5719232406       -1.1705460475
 H         -3.7365994624        2.2082544334       -1.5737145815
 H         -2.3084457015       -1.6750529983       -1.5862634627
 H          0.1322909077       -1.3628405158       -1.7396343904
 H          2.1227074597       -1.7086049916       -0.5640723716
 H          4.5288752713       -1.3649474444       -0.7571158931
 H          5.6040137052       -0.3496167254        2.0278985371
 H          5.4364708433       -2.5779607099        3.0789256095
 H          6.5164525409       -4.5266872829        2.0194255783
 H          7.7622319278       -4.2488960733       -0.0918607398
 H          7.9239112476       -2.0222617784       -1.1473650481
 H         10.0455924877        1.5363782716       -2.0638012324
 H         12.4168369405        0.8876175249       -1.7603416306
  83
       -131.11730542
 C         11.9797997692       -0.0734089946        0.4723950669
 C         11.0548031995       -1.1033408108        0.4367838734
 C          9.7485299014       -0.8574214008        0.0559047848
 C          9.3552893726        0.4341218933       -0.2876633046
 C          8.0004993235        0.7533052476       -0.7012629595
 N          7.6961727485        1.6679599618       -1.5868201060
 N          6.3750618002        1.6839952857       -1.7444044348
 C          5.8473741959        0.7817974054       -0.9546901706
 C          4.4206599875        0.5509537613       -0.8350542103
 C          3.6179197961        0.8240930515       -1.9438096590
 C          2.2517051458        0.6579365923       -1.8760975158
 C          1.6454801083        0.2087262503       -0.7030829295
 C          0.1892692690        0.0384747399       -0.6231959727
 C         -0.6663886695        0.9894172875       -1.1752170906
 C         -2.0359403823        0.8556645805       -1.0742580292
 C         -2.5891550178       -0.2439907390       -0.4205230866
 C         -4.0236001640       -0.4336157219       -0.2784086009
 N         -4.6121391494       -1.5987100212       -0.3776994557
 C         -5.9387421439       -1.3645237205       -0.1998138318
 C         -7.0065008100       -2.3028568172       -0.2606290640
 C         -6.7696382513       -3.6528621372       -0.5401145794
 C         -7.8162287180       -4.5360698352       -0.6291978775
 C         -9.1180732923       -4.0751273680       -0.4429826499
 C         -9.3617865886       -2.7511345467       -0.1616940563
 C         -8.3183651633       -1.8190725984       -0.0526450335
 C         -8.5398445116       -0.4220818191        0.2791087963
 C         -9.8197156780        0.0693878574        0.5729715131
 C        -10.0338387046        1.3780202136        0.9350891209
 C         -8.9615404934        2.2582711504        1.0370982133
 C         -7.6928734146        1.8202074378        0.7481002982
 C         -7.4567346196        0.4972373829        0.3478739902
 C         -6.1633107499       -0.0089409641        0.0362655823
 N         -4.9217563988        0.5822629727       -0.0301710413
 C         -4.5738598774        1.9375885393        0.1302904453
 C         -3.7292832466        2.3097943306        1.1694481063
 C         -3.3515774540        3.6334850429        1.3044593478
 C         -3.8127911748        4.5846043724        0.4098350377
 C         -4.6551271200        4.2121319801       -0.6256755753
 C         -5.0350926104        2.8909806297       -0.7727251081
 C         -1.7362392779       -1.2188404457        0.0975741231
 C         -0.3684496787       -1.0734017584        0.0067741323
 C          2.4505061625       -0.0546900865        0.4032049189
 C          3.8181610607        0.1220414856        0.3462460896
 N          6.8484222055        0.1456524598       -0.2563260672
 C          6.7282260552       -0.8786857069        0.6990018725
 C          7.2370223027       -0.6900635821        1.9794205038
 C          7.1188822170       -1.7011744658        2.9150117865
 C          6.4943968412       -2.8917640891        2.5807020415
 C          5.9876811343       -3.0751808304        1.3043364219
 C          6.1039226967       -2.0738153754        0.3581143993
 C         10.2966650360        1.4632082607       -0.2731446539
 C         11.5993244572        1.2084618865        0.1075537982
 H         12.9974370825       -0.2715228835        0.7747205216
 H         11.3517672983       -2.1072161801        0.7029890387
 H          9.0442759663       -1.6750425257        0.0087583772
 H          4.0917996857        1.1710640639       -2.8485434621
 H          1.6437867544        0.8575936059       -2.7460835346
 H         -0.2515392026        1.8549043360       -1.6706922459
 H         -2.6743569548        1.6016411579       -1.5230972138
 H         -5.7475743240       -3.9649623716       -0.6887432137
 H         -7.6385432374       -5.5789082468       -0.8474172791
 H         -9.9461722352       -4.7648678965       -0.5203822034
 H        -10.3859958232       -2.4405531609       -0.0284560513
 H        -10.6708281307       -0.5906224468        0.5275988991
 H        -11.0347330929        1.7195699115        1.1544924219
 H         -9.1240125012        3.2800928578        1.3464092049
 H         -6.8626948752        2.5014112383        0.8477424945
 H         -3.3739199324        1.5594823457        1.8601250427
 H         -2.6957313407        3.9216858276        2.1120077717
 H         -3.5155250945        5.6166226969        0.5180379761
 H         -5.0134527913        4.9518027767       -1.3257111587
 H         -5.6875515976        2.5883016369       -1.5788237416
 H         -2.1707532273       -2.0842286863        0.5734810327
 H          0.2806984037       -1.8372229439        0.4096711495
 H          1.9941348604       -0.3726007360        1.3293941318
 H          4.4103835742       -0.0505474001        1.2327618480
 H          7.7204120533        0.2428953994        2.2296437847
 H          7.5134960201       -1.5558209780        3.9092035637
 H          6.4027393145       -3.6773022629        3.3152517945
 H          5.5026339514       -4.0030633870        1.0415526280
 H          5.7134474195       -2.2062351792       -0.6402324420
 H          9.9834089254        2.4529119497       -0.5662856205
 H         12.3220721886        2.0107337468        0.1195797557
  83
       -131.11727534
 C         11.9816165470       -0.6707840784        0.2579119673
 C         11.7065333394        0.6693107964        0.4803955105
 C         10.4265807198        1.1543205821        0.2969231950
 C          9.4028433953        0.2979313230       -0.1073888132
 C          8.0760425550        0.8565354865       -0.2979018596
 N          7.8422608444        2.0732838577       -0.7195891047
 N          6.5245283442        2.2461674211       -0.8148535931
 C          5.9326636430        1.1389564570       -0.4481049958
 C          4.4955370562        0.9455947925       -0.3818004949
 C          3.6909606493        1.5282670015       -1.3595764445
 C          2.3226710306        1.3625236879       -1.3262514006
 C          1.7156351022        0.6200586089       -0.3127936010
 C          0.2611129489        0.4283574528       -0.2821168715
 C         -0.6072447181        1.4439383377       -0.6774442689
 C         -1.9761263322        1.2687065848       -0.6465723787
 C         -2.5243843389        0.0652809168       -0.2042870129
 C         -3.9466329453       -0.2165324672       -0.1443420341
 N         -4.4140221436       -1.4415856412       -0.2026683271
 C         -5.7631254686       -1.3375841253       -0.1267167338
 C         -6.7229950689       -2.3868968830       -0.1745031583
 C         -6.3299879733       -3.7212111288       -0.3201151514
 C         -7.2713626486       -4.7175652243       -0.3858317563
 C         -8.6228666565       -4.3872494211       -0.3088096981
 C         -9.0199222565       -3.0787103941       -0.1619294539
 C         -8.0879603979       -2.0323160218       -0.0846804817
 C         -8.4734947718       -0.6431051779        0.0957854519
 C         -9.8168210238       -0.2679290697        0.2380481100
 C        -10.1929747301        1.0383461104        0.4426453907
 C         -9.2279382957        2.0361615452        0.5303650591
 C         -7.9009773726        1.7124553598        0.3907503790
 C         -7.4973635485        0.3901752131        0.1556796798
 C         -6.1377714705        0.0000869042       -0.0052170504
 N         -4.9595574484        0.7117898641       -0.0266067782
 C         -4.7964128504        2.1093091154        0.0695846927
 C         -4.2365236504        2.6626628558        1.2148538193
 C         -4.0570755979        4.0320717022        1.2946273706
 C         -4.4342544618        4.8474426886        0.2406064416
 C         -4.9933957114        4.2939286521       -0.9003399082
 C         -5.1747808330        2.9264237324       -0.9920277365
 C         -1.6548205967       -0.9629318986        0.1719563192
 C         -0.2905416381       -0.7843521880        0.1344747349
 C          2.5256697943        0.0641353670        0.6770715384
 C          3.8955509936        0.2227674804        0.6474399326
 N          6.8808365926        0.2028984593       -0.1034679723
 C          6.6600214349       -1.1125315566        0.3386801175
 C          7.2148906272       -1.5447131320        1.5382281567
 C          6.9882893565       -2.8397570551        1.9656718447
 C          6.2080850382       -3.6985630769        1.2088973235
 C          5.6539573042       -3.2629532542        0.0164899833
 C          5.8786258954       -1.9724414267       -0.4252787114
 C          9.6892761146       -1.0432435976       -0.3523299369
 C         10.9734544377       -1.5205058971       -0.1656455873
 H         12.9817735523       -1.0506130736        0.4051384242
 H         12.4938059782        1.3372574153        0.7973427860
 H         10.1948034021        2.1953658628        0.4588136740
 H          4.1607528648        2.1037047850       -2.1420343722
 H          1.7157027185        1.7940235717       -2.1081145844
 H         -0.2064715876        2.3936968583       -0.9997213963
 H         -2.6104579031        2.0713478152       -0.9879640461
 H         -5.2736776667       -3.9316461100       -0.3829270405
 H         -6.9730422519       -5.7493839222       -0.4991423533
 H         -9.3683561974       -5.1674588367       -0.3644074564
 H        -10.0771400243       -2.8725028245       -0.1082100461
 H        -10.5900834935       -1.0177200635        0.1943918584
 H        -11.2386414973        1.2883479932        0.5459244528
 H         -9.5188452786        3.0604737971        0.7107538877
 H         -7.1572206072        2.4883324213        0.4764439458
 H         -3.9434514440        2.0162827711        2.0286631071
 H         -3.6226353671        4.4628504116        2.1839396643
 H         -4.2922208407        5.9153798678        0.3068374398
 H         -5.2865203854        4.9281911470       -1.7233297017
 H         -5.6087056340        2.4816898870       -1.8757310119
 H         -2.0825393336       -1.9016500058        0.4867662928
 H          0.3615750167       -1.5996132882        0.4114707555
 H          2.0739408282       -0.4795393313        1.4935702428
 H          4.4972946615       -0.1996353309        1.4391697851
 H          7.8189439399       -0.8664209958        2.1226048920
 H          7.4195940947       -3.1766464590        2.8960669566
 H          6.0317747856       -4.7077199119        1.5486284334
 H          5.0472119679       -3.9306217432       -0.5761375699
 H          5.4543747978       -1.6246287809       -1.3555804603
 H          8.9183182520       -1.7112934005       -0.7075589159
 H         11.1877603632       -2.5617625729       -0.3573059580
  83
       -131.11724702
 C         12.0010958943        0.1670790792       -0.2867334852
 C         11.5659864754        1.4136498962        0.1346131251
 C         10.2482802766        1.5999744461        0.5033380643
 C          9.3469947267        0.5371997944        0.4479877636
 C          7.9744327642        0.7824229442        0.8543419649
 N          7.6239532983        1.6217585333        1.7953578970
 N          6.2999250396        1.5844780546        1.9267782743
 C          5.8177814544        0.7242450611        1.0652325775
 C          4.4023474881        0.4610913843        0.8898168125
 C          3.8422529038        0.1454304601       -0.3465961992
 C          2.4805605820       -0.0468925783       -0.4632615615
 C          1.6408992291        0.0693807896        0.6428706518
 C          0.1893079737       -0.1063314629        0.5128789113
 C         -0.4912797500        0.4025515911       -0.5916478131
 C         -1.8620744147        0.2871873525       -0.6990264668
 C         -2.5958495898       -0.3437105444        0.3041682196
 C         -4.0427933938       -0.4733602893        0.2699006165
 N         -4.6808865315       -1.5197624896        0.7317709062
 C         -6.0016263972       -1.2721795044        0.5345359548
 C         -7.1038080013       -2.1216927935        0.8312886446
 C         -6.9113850976       -3.3929610393        1.3819910728
 C         -7.9853601110       -4.2105131473        1.6302775173
 C         -9.2696265672       -3.7649709396        1.3239327040
 C         -9.4707032905       -2.5145474317        0.7878922132
 C         -8.3999516650       -1.6448952529        0.5297638189
 C         -8.5827078754       -0.3042923942        0.0004252643
 C         -9.8597851677        0.2291363673       -0.2240789895
 C        -10.0451213900        1.5129599079       -0.6791979974
 C         -8.9479025742        2.3343617832       -0.9166378128
 C         -7.6794041014        1.8482613780       -0.7175985250
 C         -7.4676912682        0.5326886717       -0.2807957026
 C         -6.1758240452       -0.0200919924       -0.0532543822
 N         -4.9051823586        0.4790285734       -0.2304681934
 C         -4.5145730687        1.7029850357       -0.8079199594
 C         -3.8399226875        2.6441395383       -0.0394315192
 C         -3.4227581357        3.8286666960       -0.6191625647
 C         -3.6772345387        4.0776862021       -1.9574997521
 C         -4.3510407558        3.1387026886       -2.7222274123
 C         -4.7679563005        1.9492740519       -2.1542908830
 C         -1.9128553149       -0.8956662636        1.3892310484
 C         -0.5444223362       -0.7724245923        1.4945629236
 C          2.2078701898        0.3897520740        1.8768317463
 C          3.5657471163        0.5894063739        1.9991747355
 N          6.8516237105        0.1718318047        0.3438797493
 C          6.7811090273       -0.7998447083       -0.6692074820
 C          6.1652644551       -2.0202210012       -0.4135063709
 C          6.0991399726       -2.9725758210       -1.4135468549
 C          6.6476070964       -2.7153948628       -2.6594298899
 C          7.2622689244       -1.4992334169       -2.9093905888
 C          7.3298077727       -0.5363435545       -1.9195697923
 C          9.7943127882       -0.7193085234        0.0460438889
 C         11.1153972795       -0.8968452217       -0.3214401268
 H         13.0306534932        0.0225376779       -0.5789514038
 H         12.2574747537        2.2421386687        0.1753911430
 H          9.8927110455        2.5613060295        0.8396029835
 H          4.4642496755        0.0715463073       -1.2265838795
 H          2.0624950827       -0.3027601161       -1.4258751116
 H          0.0585370822        0.9173419655       -1.3658854965
 H         -2.3563929778        0.6780796268       -1.5753793581
 H         -5.8998365197       -3.7025075649        1.5943470004
 H         -7.8416539276       -5.1932792561        2.0545340347
 H        -10.1178096701       -4.4083511480        1.5091942482
 H        -10.4821520080       -2.2149882733        0.5633760513
 H        -10.7335193646       -0.3710308657       -0.0278363904
 H        -11.0449461337        1.8888780993       -0.8394089329
 H         -9.0916296117        3.3513799406       -1.2504274055
 H         -6.8332737982        2.4961702889       -0.8830793722
 H         -3.6446971349        2.4386964848        1.0025119157
 H         -2.8981901816        4.5592063609       -0.0222821009
 H         -3.3501771366        5.0033445755       -2.4061786055
 H         -4.5492384155        3.3304222932       -3.7661192023
 H         -5.2921945955        1.2084799017       -2.7405502478
 H         -2.4821846731       -1.4139854773        2.1449771081
 H         -0.0309898925       -1.2087507095        2.3387413507
 H          1.5699492993        0.5093436910        2.7399249583
 H          4.0052131803        0.8570054076        2.9472667509
 H          5.7424790284       -2.2109492828        0.5619103622
 H          5.6208586134       -3.9199248559       -1.2162035632
 H          6.5964378303       -3.4633373887       -3.4358905408
 H          7.6892260991       -1.2965183698       -3.8798833040
 H          7.8054652415        0.4156419870       -2.1041126822
 H          9.1203026869       -1.5633520938        0.0384739961
 H         11.4549341858       -1.8739369061       -0.6327726584
  83
       -131.11721679
 C         11.9431785191        0.0372259707       -0.6911967450
 C         11.5051927883        1.3505451398       -0.6271392034
 C         10.2058538944        1.6307114606       -0.2527718344
 C          9.3258990055        0.5942117196        0.0571363943
 C          7.9719382182        0.9408151601        0.4517935226
 N          7.6529694006        2.0153856006        1.1273509360
 N          6.3381217223        2.0127555315        1.3339679727
 C          5.8299277897        0.9382186684        0.7841664235
 C          4.4114749933        0.6377778851        0.7585149637
 C          3.8026670587       -0.0283886324       -0.3035124789
 C          2.4383811335       -0.2361035569       -0.3018809409
 C          1.6427486639        0.2239770690        0.7457260597
 C          0.1863362554        0.0438734307        0.7083742835
 C         -0.3830384245       -1.1476469095        0.2600154568
 C         -1.7520452925       -1.2885493674        0.1821179538
 C         -2.5957199562       -0.2345121106        0.5347440537
 C         -4.0301480592       -0.4205470453        0.3914941679
 N         -4.6401551223       -1.5556473826        0.6230357861
 C         -5.9574868133       -1.3301815014        0.3787743579
 C         -7.0416932905       -2.2394996947        0.5272134341
 C         -6.8358146556       -3.5433901307        0.9898133712
 C         -7.8990667232       -4.3941249501        1.1606357914
 C         -9.1867906370       -3.9463395651        0.8724842876
 C         -9.3998791078       -2.6685605548        0.4107706122
 C         -8.3384828143       -1.7717761652        0.2143173191
 C         -8.5274859191       -0.4274496763       -0.3031221029
 C         -9.7886985356        0.0345428940       -0.7053333198
 C         -9.9715029766        1.2896053593       -1.2355966509
 C         -8.8845527966        2.1412053141       -1.4040747180
 C         -7.6329895040        1.7301432312       -1.0173078332
 C         -7.4293548917        0.4645303670       -0.4488671875
 C         -6.1539950460       -0.0134877237       -0.0352038048
 N         -4.9056827713        0.5659346178       -0.0100090278
 C         -4.5387224720        1.8886929901       -0.3262459985
 C         -3.6779331056        2.1274577225       -1.3908408355
 C         -3.2835299430        3.4223534413       -1.6751044478
 C         -3.7443848971        4.4766256839       -0.9045617127
 C         -4.6034174809        4.2371353731        0.1561725259
 C         -5.0002960818        2.9463275777        0.4519954408
 C         -2.0315752457        0.9433228363        1.0218150794
 C         -0.6610562123        1.0761894075        1.1061946765
 C          2.2579017889        0.8927022982        1.8041667383
 C          3.6205986083        1.0972436123        1.8123853877
 N          6.8370843648        0.2040098284        0.2005756350
 C          6.7352432661       -1.0193209094       -0.4840396017
 C          6.1655097570       -2.1188967331        0.1487422774
 C          6.0685318218       -3.3199932971       -0.5289160985
 C          6.5396961892       -3.4287119862       -1.8271686615
 C          7.1083488166       -2.3314666898       -2.4531830480
 C          7.2072545193       -1.1235368472       -1.7878962552
 C          9.7771276257       -0.7229600071        0.0137777919
 C         11.0797923997       -0.9943615487       -0.3623759424
 H         12.9582971004       -0.1817554461       -0.9876311571
 H         12.1796534718        2.1578152258       -0.8714975951
 H          9.8486738726        2.6467878434       -0.1920457549
 H          4.3871283135       -0.3606247700       -1.1488242347
 H          1.9764932239       -0.7323819431       -1.1428645938
 H          0.2573248634       -1.9728902184       -0.0155579297
 H         -2.1955451467       -2.2106788296       -0.1601512235
 H         -5.8240556940       -3.8456195992        1.2113626819
 H         -7.7453843213       -5.4007677327        1.5205512865
 H        -10.0281836838       -4.6095262325        1.0135611571
 H        -10.4142575196       -2.3655050307        0.2050240129
 H        -10.6496163657       -0.6074149619       -0.6116446566
 H        -10.9587615441        1.6097908114       -1.5345835879
 H         -9.0218641815        3.1187927419       -1.8421725269
 H         -6.7906352026        2.3860072270       -1.1698679083
 H         -3.3223703052        1.2976562403       -1.9833978052
 H         -2.6143603060        3.6071549670       -2.5016959976
 H         -3.4338515034        5.4856811120       -1.1291067121
 H         -4.9625285580        5.0576221550        0.7590256190
 H         -5.6677526142        2.7469203901        1.2777879924
 H         -2.6614996990        1.7555462666        1.3513441083
 H         -0.2390806462        2.0040768339        1.4631359228
 H          1.6598279284        1.2406305427        2.6332615367
 H          4.0988508363        1.6210788119        2.6250405925
 H          5.8031171401       -2.0231392614        1.1617177752
 H          5.6262556168       -4.1741036194       -0.0389042400
 H          6.4636292168       -4.3691085826       -2.3513914388
 H          7.4738319179       -2.4135853465       -3.4655501961
 H          7.6474657461       -0.2614293131       -2.2670005582
 H          9.1211191158       -1.5352083785        0.2906253608
 H         11.4227355026       -2.0181266353       -0.3940354725
  83
       -131.11652311
 C         12.0105390746       -0.2649810791        0.4127636927
 C         11.0002530661       -0.0049062670        1.3232963862
 C          9.7034027580        0.1983484908        0.8892314358
 C          9.4060016863        0.1353822890       -0.4703437721
 C          8.0651833640        0.3549812604       -0.9834096747
 N          7.7970403956        0.9473046308       -2.1192112320
 N          6.4759851066        1.0087034803       -2.2640339476
 C          5.9117060778        0.4513129807       -1.2209818166
 C          4.4777302347        0.3154128556       -1.0584396704
 C          3.6565024919        1.2406389140       -1.7057701942
 C          2.2858882196        1.1577796487       -1.5966344350
 C          1.6867362735        0.1489121035       -0.8403460755
 C          0.2278500013        0.0655337335       -0.7123228360
 C         -0.5527447408        1.2170672648       -0.6330295964
 C         -1.9257819333        1.1485880426       -0.5062426023
 C         -2.5707836888       -0.0865514087       -0.4436683456
 C         -4.0025319007       -0.2770872440       -0.3107173608
 N         -4.5601236074       -1.4459981226       -0.5341920844
 C         -5.8870132877       -1.2854320159       -0.3224361278
 C         -6.9151841937       -2.2619167306       -0.4435456193
 C         -6.6239421640       -3.5763757239       -0.8221204250
 C         -7.6293865932       -4.5032840244       -0.9377114393
 C         -8.9437796455       -4.1218930456       -0.6761500744
 C         -9.2409136901       -2.8319175973       -0.3030458041
 C         -8.2408745497       -1.8561593693       -0.1706493904
 C         -8.5197374299       -0.4899648237        0.2385106085
 C         -9.8230843401       -0.0650327281        0.5320174711
 C        -10.0988375437        1.2174408640        0.9431049134
 C         -9.0675578510        2.1389479100        1.0903993722
 C         -7.7768666576        1.7655121549        0.8077689406
 C         -7.4756187470        0.4678872075        0.3693189879
 C         -6.1588776621        0.0301597604        0.0515768335
 N         -4.9395516538        0.6690343234        0.0502945016
 C         -4.7025881801        2.0230190334        0.3723262907
 C         -4.2103166831        2.3605985070        1.6277878411
 C         -3.9783632635        3.6893043441        1.9355110736
 C         -4.2359756419        4.6770970587        0.9992335784
 C         -4.7278674773        4.3384358831       -0.2514659575
 C         -4.9625058186        3.0136160097       -0.5704028544
 C         -1.7891150850       -1.2438444866       -0.5401313107
 C         -0.4218034068       -1.1696222788       -0.6721880688
 C          2.5122282492       -0.7859830444       -0.2169199309
 C          3.8858493731       -0.7121768037       -0.3262337144
 N          6.8890133594        0.0102655405       -0.3572155817
 C          6.7408629464       -0.6431286762        0.8788684050
 C          6.0220969355       -0.0358225681        1.9030895781
 C          5.8845932539       -0.6849328359        3.1159376080
 C          6.4644471707       -1.9278731717        3.3122160012
 C          7.1831233219       -2.5273352540        2.2908947135
 C          7.3230895142       -1.8911935292        1.0713372943
 C         10.4309874806       -0.1046618050       -1.3847735104
 C         11.7237038271       -0.3061803686       -0.9425249751
 H         13.0209010225       -0.4259544480        0.7585231857
 H         11.2227022272        0.0452477048        2.3789869467
 H          8.9302576856        0.4257997410        1.6085128516
 H          4.1220626393        2.0144605966       -2.2956712884
 H          1.6666703456        1.8703003122       -2.1208363417
 H         -0.0771137999        2.1867358424       -0.6532298945
 H         -2.4850926467        2.0690007972       -0.4679554830
 H         -5.5933718732       -3.8283245796       -1.0181414898
 H         -7.4094723841       -5.5197587023       -1.2291167909
 H         -9.7395905085       -4.8472441005       -0.7665276944
 H        -10.2730412803       -2.5850702414       -0.1111041502
 H        -10.6456830871       -0.7554586016        0.4390027626
 H        -11.1167715523        1.5074513602        1.1582815504
 H         -9.2788252116        3.1434852980        1.4261143009
 H         -6.9822142802        2.4831693490        0.9325935731
 H         -4.0123884588        1.5807790798        2.3479635412
 H         -3.5972896874        3.9533183455        2.9103945473
 H         -4.0540847769        5.7125981357        1.2438110666
 H         -4.9285083246        5.1078192189       -0.9816760993
 H         -5.3470140413        2.7351048404       -1.5404261451
 H         -2.2919520499       -2.1973235496       -0.5130750292
 H          0.1535420426       -2.0786270816       -0.7672071154
 H          2.0734089967       -1.5748420219        0.3759255812
 H          4.4929094612       -1.4688178866        0.1479359813
 H          5.5749957225        0.9336046834        1.7390624787
 H          5.3251150284       -0.2157447422        3.9109461599
 H          6.3557724657       -2.4296135613        4.2616609674
 H          7.6347331174       -3.4960426703        2.4415119329
 H          7.8794699236       -2.3502107466        0.2675046109
 H         10.1907465090       -0.1259240346       -2.4359279065
 H         12.5118053223       -0.4956461166       -1.6560459495
