70
 energy: -99.207491631207 gnorm: 0.000103789333 xtb: 6.7.1 (edcfbbe)
C            6.30972484879516        0.29025808867873        0.32724995300107
C            4.91863812869947        0.24139024744173        0.98604706253726
C            5.04538194351446        0.41589582550651        2.51088444267472
C            4.29342666841625       -1.11044758309392        0.70406677796082
C            4.92595324344435       -2.26432243638304        1.14573254970638
C            4.39354444665367       -3.52177417803335        0.92808420042991
C            3.18871109938472       -3.64196372744364        0.25687602142104
C            2.53908683885150       -2.51366604686251       -0.19343174664554
C            3.08199196112948       -1.23991875485144        0.01302687884452
N            2.40960498763011       -0.12960348602854       -0.46009831949275
C            1.18811710023730       -0.31312103333334       -1.16604677634632
C            1.21191255162841       -0.66737404859609       -2.53182321414625
C            0.01639601743000       -0.84099135287105       -3.20778548346775
C           -1.19467468533849       -0.67395024250878       -2.56754250779343
C           -1.21021604186963       -0.31676815473278       -1.20164293075722
N           -2.44877027113884       -0.12375763653930       -0.52998038311491
C           -2.85623621602167        1.15404776540629       -0.27376075761851
C           -2.11094294127313        2.25594522319674       -0.77293091484013
C           -2.46669553160729        3.53697262188016       -0.47701954294764
C           -3.59256551270804        3.78662878806553        0.33307888490288
C           -4.35451239864244        2.71501478406350        0.79016767589869
C           -4.03425327708036        1.40656090174387        0.50456647694307
C           -4.91207510865424        0.27608268414358        0.98219254699152
C           -6.31629596200881        0.46403845227921        0.37244061982400
C           -4.99937002621590        0.32964022626829        2.52100201773069
C           -4.38738131517736       -1.08168240091643        0.58303519490172
C           -5.07152096470706       -2.22676874710425        0.93203502232939
C           -4.60534181352889       -3.49803990766953        0.61741378991290
C           -3.37895498000972       -3.63487890832897       -0.05921626730885
C           -2.67159931689630       -2.52601065093033       -0.42027863065412
C           -3.15942575390030       -1.22436139001185       -0.13923506616043
C           -0.01821983498660       -0.14054514847018       -0.51238063544739
C            2.88858852315021        1.15185145842860       -0.26529250247370
C            2.17781173515247        2.24097652676127       -0.78269277254324
C            2.62186692493643        3.53130476637515       -0.59684265423805
C            3.79183306484941        3.76229081331535        0.10654959593909
C            4.50604809772156        2.68827087693791        0.60467840844728
C            4.08194210980259        1.37793552975827        0.43276973198829
H            6.21314762281725        0.16754710699987       -0.74992052498170
H            6.94680826345747       -0.50354451347762        0.70722099952987
H            6.79763152719753        1.24134883931438        0.52155949446331
H            4.05929935598430        0.38077031597245        2.97033750878101
H            5.50399999229051        1.36991394258192        2.75541285649856
H            5.65319689810675       -0.37430283355353        2.94265413731913
H            5.86229808307786       -2.18653221357432        1.67742029659210
H            4.91291284330268       -4.39843419119935        1.28399164417061
H            2.75287008300013       -4.61471449841515        0.08494258687120
H            1.59776769045685       -2.60902723999796       -0.71148169481242
H            2.16033063857926       -0.79535283805201       -3.02816039751642
H            0.03138533004854       -1.10951291438209       -4.25398495930145
H           -2.12943165331393       -0.80294344237927       -3.08953638686337
H           -1.25939740923705        2.06139560639451       -1.40583153129069
H           -1.89211889375667        4.36425947071515       -0.86472141450188
H           -3.87215739857896        4.79788809354368        0.57985687882442
H           -5.23044271776642        2.93313303974807        1.38336314203911
H           -6.73166301800983        1.42733086312305        0.65430008327481
H           -6.25660381328415        0.41869576705128       -0.71312017881039
H           -6.99265708999948       -0.31449837327002        0.71345112170640
H           -5.64107685397709       -0.46138623334954        2.89834241842033
H           -4.00802944148372        0.20423789939934        2.95195359235151
H           -5.40061345224791        1.28336113657849        2.85153286351855
H           -6.00311666603196       -2.14748903611478        1.47273579092942
H           -5.16976970870620       -4.37092024572804        0.90303048655958
H           -2.99840556609358       -4.61913340106464       -0.28562552339794
H           -1.72631118943867       -2.62975538697669       -0.92941747441768
H           -0.03450336397924        0.13604282601159        0.53224927152959
H            1.27164246834679        2.06290761627108       -1.33951799492554
H            2.05512686251741        4.35574766869552       -1.00271269923615
H            4.14937674697521        4.76882820914097        0.26125734942346
H            5.42199632581352        2.88373183415833        1.14166548439417
