70
 energy: -99.318081068322 gnorm: 0.000014186153 xtb: 6.7.1 (edcfbbe)
C            6.36475215401550        0.00071303374880        0.10012683763822
C            4.99238379191046        0.00046700501442        0.79785659358657
C            5.17202572014400        0.00086899089661        2.32691585102133
C            4.24457719722498       -1.25746453933666        0.39715704400505
C            4.78462862669336       -2.50060372920001        0.69603839617863
C            4.14711547041769       -3.67953177541854        0.35580843675153
C            2.93238831480294       -3.62648816146730       -0.30316411251764
C            2.37383620241426       -2.40487207183287       -0.61429536533518
C            3.01731461531430       -1.21235671271663       -0.27198592031400
N            2.43181357297125       -0.00061073720873       -0.59957585496233
C            1.20036116297534       -0.00113325781151       -1.30922541900205
C            1.19982970323440       -0.00215794682556       -2.69902552347042
C           -0.00013153196186       -0.00263674918403       -3.38828013386790
C           -1.20001700846730       -0.00206709322949       -2.69889421247150
C           -1.20039871982997       -0.00104422111766       -1.30909403596825
N           -2.43178015195352       -0.00042984799281       -0.59932132893474
C           -3.01639230674343        1.21186140525652       -0.27215796841343
C           -2.37212793954417        2.40379089652633       -0.61502414822506
C           -2.92975417930613        3.62592132130008       -0.30425472318721
C           -4.14435015018442        3.68007778133783        0.35486809110603
C           -4.78269986771312        2.50173204467772        0.69554529983923
C           -4.24358838633199        1.25809678149846        0.39703418595828
C           -4.99237497509101        0.00085332440667        0.79806581176465
C           -6.36472012603399        0.00146371022193        0.10028997887687
C           -5.17207358725529        0.00101803224129        2.32711768015372
C           -4.24476712167692       -1.25713975977359        0.39718861472469
C           -4.78503085068850       -2.50023592996339        0.69586491959782
C           -4.14770379190498       -3.67921611660322        0.35546788232094
C           -2.93294027753583       -3.62627020329163       -0.30344544619592
C           -2.37417896239825       -2.40469811783607       -0.61437402015552
C           -3.01748249035759       -1.21212995565969       -0.27192108360932
C            0.00001915243842       -0.00059733620871       -0.61212164557275
C            3.01662941309123        1.21163479659128       -0.27260841687608
C            2.37255945847458        2.40361748895295       -0.61565564075879
C            2.93039247246395        3.62570431735599       -0.30508563831407
C            4.14500094664928        3.67976298557025        0.35402201574751
C            4.78315440748237        2.50136481300244        0.69488630453666
C            4.24383445454558        1.25777193664481        0.39657494766458
H            6.23068187835467        0.00039591826224       -0.98010833176821
H            6.93961372345100       -0.87957801066096        0.37429304744687
H            6.93905864277536        0.88150805664418        0.37383338183236
H            4.19834452823919        0.00072022618052        2.81340947330191
H            5.71831411257425        0.88129394712598        2.65373716269851
H            5.71877262565491       -0.87912053140928        2.65414090032089
H            5.73241013478677       -2.55785658388527        1.20983681748873
H            4.59593392610840       -4.62923048289024        0.60391557412263
H            2.41673990872223       -4.53492282945371       -0.57680532915081
H            1.42645472006688       -2.36962565312087       -1.13031913980804
H            2.14110071544886       -0.00257114937038       -3.22759985763237
H           -0.00019111188821       -0.00342714466731       -4.46773781167808
H           -2.14134582370192       -0.00242104759941       -3.22736559376380
H           -1.42487891807600        2.36768349356120       -1.13122819496272
H           -2.41348831587053        4.53388419849582       -0.57829888811173
H           -4.59243562134772        4.63018836797418        0.60272330988549
H           -5.73040078399804        2.55985189399834        1.20939535258118
H           -6.93889714287251        0.88229607116895        0.37415203829350
H           -6.23059966058105        0.00134491207608       -0.97993840641074
H           -6.93973100966503       -0.87879523011700        0.37424764939848
H           -5.71903472165002       -0.87890527718504        2.65416274898643
H           -4.19841286895105        0.00056480088261        2.81365345533020
H           -5.71817671109527        0.88150610550330        2.65407685116131
H           -5.73284129991564       -2.55741247575009        1.20961888931050
H           -4.59668661885151       -4.62887947318612        0.60341357483182
H           -2.41742303892522       -4.53474782133315       -0.57719278011308
H           -1.42676596450393       -2.36952774056475       -1.13034510964092
H            0.00007939460007        0.00020532068133        0.46770140505229
H            1.42529877436728        2.36758595840993       -1.13184394282833
H            2.41428397189220        4.53370998993172       -0.57928424933619
H            4.59325433036421        4.62983827631449        0.60170852332414
H            5.73086381220688        2.55940851141638        1.20872922651577
