85
 energy: -99.169563871355 gnorm: 0.000037831144 xtb: 6.7.1 (edcfbbe)
C           -0.20724071306607        4.85375799279203        0.53687747731164
C           -0.62444914637058        4.09405069267465       -0.73488238497818
C           -1.83216769366738        4.78248457400371       -1.37683121942458
C           -0.88557085364715        2.65150370926854       -0.42239883611379
C           -2.04403625484964        2.21076797203337        0.22292569374786
C           -2.29231196216912        0.87921914738051        0.47154524723236
C           -3.37228111037578        0.59828981563903        1.50682781518435
C           -4.78091795296047        0.98154654012494        1.02234407799533
C           -3.41269563373544       -0.80472747045354        2.11084483622378
C           -1.47355000993063       -0.14233353175896       -0.19179162460089
C           -2.08304871753869       -1.40647947725081       -0.49263788948914
C           -3.40623588537513       -1.44507375735022       -0.98656079953858
C           -4.02788437668991       -2.63231818330005       -1.29644909724271
C           -3.37464888359925       -3.84346991053491       -1.09884210229302
C           -2.07661020175685       -3.83354086332771       -0.60401778997374
C           -1.43927796701194       -2.64694645359914       -0.32120381426423
C           -0.15111415923882        0.23780426550202       -0.77798577859281
C           -0.18737638291188        0.11352278893540       -2.34411829510436
C           -1.36212003960414        0.89107438675152       -2.93357880037166
C           -0.18553292003049       -1.30538054872854       -2.90371399988720
P            1.30794454495351       -0.93241532110719       -0.17933691990651
C            2.84411976645049       -0.14468753074680       -0.97852086659635
C            3.65697138134861        0.89775484033204       -0.21365697499966
C            4.79597840252489        1.41283401349298       -1.09513306189491
C            5.71149049660940        0.26834459831124       -1.51818344585870
C            4.91336846962883       -0.80080617486663       -2.25824429090420
C            3.76118427179543       -1.30252941927105       -1.39219028134931
C            1.55513254384466       -0.47122841729765        1.63424353779278
C            0.25566524896077       -0.52682261363031        2.42879207313005
C            0.51358228659602       -0.23343089003267        3.90514912937006
C            1.50648981195238       -1.23513196316814        4.48719252835448
C            2.80678231716591       -1.21251757963846        3.68979019144118
C            2.53348485204359       -1.49751068394139        2.21539503038709
C            0.24534182645852        1.68631597734557       -0.44659817562567
H            0.00039959253018        5.89570969709842        0.30228309597896
H            0.68697557127211        4.41149289953476        0.97009738009360
H           -1.00368883724979        4.81625263234227        1.27664815406534
H            0.21307206584185        4.14621313514036       -1.44233133186794
H           -2.15866257781441        4.24117335199465       -2.26257840495101
H           -2.66572286356841        4.83583550963966       -0.68121398283056
H           -1.56992855607659        5.79701345400353       -1.67036638259780
H           -2.74272506374608        2.94872599356143        0.59518536750424
H           -3.13895192002315        1.28525572640260        2.33479204059160
H           -5.45497487983969        1.04493158912556        1.87487990785202
H           -5.17586157908809        0.23348230365439        0.34092545641650
H           -4.77714958694884        1.94348000772618        0.51541244055026
H           -3.85034613031558       -1.52503833744086        1.42663113501210
H           -4.02288741045097       -0.78347168389864        3.01303860037685
H           -2.41903657652274       -1.14731031538261        2.38001777580077
H           -3.91243099232855       -0.51065836739878       -1.17724203235995
H           -5.03186734608269       -2.62239790863622       -1.70029068117702
H           -3.86818385146652       -4.77612208554401       -1.32948526509011
H           -1.55988887729603       -4.76890306016418       -0.43807899699246
H           -0.43693238512519       -2.66626024525502        0.07967108224025
H            0.72614501808012        0.59598152089054       -2.70858549250700
H           -1.40346712716498        1.89803806220772       -2.52297611743474
H           -1.25280067616617        0.95898527542695       -4.01469112876227
H           -2.30174300848890        0.39196665760505       -2.71403434707783
H            0.59134511524726       -1.90893316728115       -2.43742623625790
H            0.00974893138975       -1.26483560790438       -3.97446805237612
H           -1.14158735594631       -1.79621341711302       -2.75311830933857
H            2.48850607376788        0.31925628619977       -1.90513683459694
H            4.08866170397591        0.45501830552810        0.68564600863970
H            3.03347458747908        1.74156622772264        0.08569981660722
H            5.36944671835746        2.16517369317256       -0.54771686323072
H            4.38127526886920        1.89299836597928       -1.98557365303817
H            6.51243323227958        0.64716751407007       -2.15743648432134
H            6.17291595151177       -0.17290570906175       -0.63096995936112
H            4.51256153951504       -0.37882096496226       -3.18369821370414
H            5.56527349435419       -1.63525687533799       -2.52727335776571
H            3.18310336975529       -2.04898254583121       -1.94378639279816
H            4.16419698050071       -1.79302479736009       -0.50275239429068
H            1.99195625274820        0.52736497078454        1.73612507742138
H           -0.45991932059326        0.19640652767738        2.03253601365219
H           -0.18121746671801       -1.52418227350648        2.32944026955284
H            0.91491178544142        0.77841938995602        4.00910157298666
H           -0.42762518281232       -0.27659262569239        4.45811525573300
H            1.70569008818765       -0.99926757730390        5.53526274842223
H            1.07403979517038       -2.23791996940580        4.44574251030785
H            3.50186052935463       -1.95644189179847        4.08668150632897
H            3.27620176290621       -0.23001028428024        3.78932627175964
H            2.10348633980811       -2.49805169171081        2.11180270998937
H            3.47351099759317       -1.48726533897172        1.65976850700893
H            0.68637894847886        1.69459955163131        0.55960879574549
H            1.01899599694491        2.02502274244682       -1.13755398870345
