85
 energy: -99.255063031806 gnorm: 0.000040557305 xtb: 6.7.1 (edcfbbe)
C            0.09149763261151        4.67833264790215        1.06416190577249
C           -0.59813222374880        4.21345227918929       -0.22532269290146
C           -1.81923903449383        5.08816556803122       -0.50809344537441
C           -0.92259029192232        2.74298677554835       -0.12902246129114
C           -2.10494637421497        2.25035686181515        0.23371797376286
C           -2.39296219184043        0.82453706015019        0.29010116919031
C           -3.70907445822811        0.53060505868335        0.99293449964766
C           -4.90648468201677        0.67353668047839        0.04646331615948
C           -3.78348083124862       -0.79485477330402        1.74924855627468
C           -1.53859113041656       -0.06481186048309       -0.25521784547807
C           -1.94347285553731       -1.47534788107104       -0.47437895630052
C           -2.93198938739065       -1.75275411491715       -1.42029548100307
C           -3.35258871931705       -3.04694982761909       -1.66611905818367
C           -2.79208731548094       -4.10434304650961       -0.96967094445724
C           -1.81644669116439       -3.84718695412967       -0.02317232799607
C           -1.40082384282734       -2.55000154920817        0.22177138317959
C           -0.18339248048994        0.37815475560818       -0.80440195773169
C           -0.18216235790662        0.36935751047554       -2.36432028040147
C           -1.32410983871418        1.20967795525632       -2.93895886876189
C           -0.17038601114553       -1.01257169612841       -3.01577174489273
P            1.12352448721794       -0.90160963666028       -0.17585696691192
C            2.72397259306394       -0.30621648461014       -1.01547295687456
C            3.62071279335668        0.72475691425360       -0.33339083573751
C            4.78559649837080        1.08677780408345       -1.25655808927991
C            5.60688768448470       -0.15097539874673       -1.60394740776144
C            4.72088021425568       -1.20779304902462       -2.25671014334672
C            3.54856183950367       -1.55699282312528       -1.34404391874475
C            1.45115906358173       -0.38831866794054        1.62098955372202
C            0.21750520406692       -0.19641278752712        2.50230800536440
C            0.64641352059760        0.21475931953587        3.91075563083314
C            1.53778950160071       -0.85604004682095        4.53315824574597
C            2.75486147897323       -1.11169187857017        3.64920632953500
C            2.32284962481356       -1.48885793307172        2.23426220945730
C            0.21775658470141        1.79151021805997       -0.33670428193619
H            0.32865313437258        5.73853912226261        1.00370521310329
H            1.01517416906031        4.12933109320446        1.23054962835510
H           -0.56424310751735        4.51728529171671        1.91755613769944
H            0.11033914396096        4.34671994001929       -1.05345758247193
H           -2.37413023536738        4.71004522984126       -1.36422568803690
H           -2.48349426097029        5.11884067970464        0.35217550436641
H           -1.50247035737711        6.10656215894611       -0.72473606852532
H           -2.92945648486798        2.90737738428074        0.46619468936534
H           -3.80586952854201        1.32159136314381        1.74997040942212
H           -5.83237407198038        0.69877196852124        0.61860061340866
H           -4.95542036796153       -0.16792944629222       -0.63883564098314
H           -4.83455981235231        1.59200200879549       -0.53304773213356
H           -3.90998031233500       -1.63783207717963        1.07742052965236
H           -4.63594203182810       -0.77271221967906        2.42697707015013
H           -2.88277191610933       -0.95070248851195        2.33749715000445
H           -3.37304146156265       -0.94139729337939       -1.98106784776620
H           -4.11987292737036       -3.22978683623485       -2.40589298981963
H           -3.11685525520105       -5.11705502179916       -1.16058227574329
H           -1.37725758237033       -4.66182579902416        0.53507482121982
H           -0.66062400284145       -2.37676739637991        0.98618590468332
H            0.74463951168724        0.86855141717311       -2.67328887642719
H           -1.24726898685016        2.24454399161260       -2.61651311739809
H           -1.28577947626509        1.18324055589355       -4.02677779647418
H           -2.28945138448322        0.82936272242532       -2.61996555042973
H            0.56897493983215       -1.65688747471495       -2.54186411242929
H            0.08635951891005       -0.91523715861091       -4.07000900596425
H           -1.13716406396277       -1.49855755368669       -2.94428016458809
H            2.40182400292640        0.11449749254791       -1.97362387819144
H            4.02830712654229        0.31760839319359        0.59402749698832
H            3.06358134559080        1.63269232237457       -0.09703655897115
H            5.42156470849615        1.82958505023040       -0.76797195778226
H            4.39736319300298        1.53339295942850       -2.17592366438648
H            6.42424800857971        0.11997245051861       -2.27651311968469
H            6.04732000679579       -0.56108825523498       -0.69143063024182
H            4.33796916369598       -0.82476558055622       -3.20637429448107
H            5.30527298089001       -2.10595016895589       -2.47048397282491
H            2.91048981332317       -2.30138621456353       -1.82869136164940
H            3.93107163145836       -2.00575518534991       -0.42423394398250
H            2.02504534800070        0.54457479397987        1.63492439892200
H           -0.44906943219979        0.55955291161320        2.08650390303274
H           -0.34400989716713       -1.12969240842080        2.57248211510669
H            1.19116523789658        1.16180298167149        3.86621360819681
H           -0.23909573643955        0.36976629602380        4.53198121861262
H            1.85915490842644       -0.54428222171983        5.52988191189274
H            0.96769877282894       -1.78236002743002        4.64028896921154
H            3.36505494313607       -1.91175149445800        4.07573729041493
H            3.36955190334201       -0.20806501417685        3.61112633878460
H            1.75756482006934       -2.42476088082569        2.26101592254775
H            3.20715139008974       -1.66120290734306        1.61709347515713
H            0.74189026875980        1.73424051454296        0.61940335712903
H            0.92309528421659        2.21468150944425       -1.05664566747829
