  85
        -99.22867574
 C          0.2304793994        4.6858864596        0.8894149667
 C         -0.6001876253        4.2048103729       -0.3067088912
 C         -1.8334131631        5.0901068698       -0.4718529097
 C         -0.9261580839        2.7411297736       -0.1497841571
 C         -2.1083128062        2.2575177802        0.2246242265
 C         -2.3888264718        0.8318999275        0.3019952203
 C         -3.6943531215        0.5343903217        1.0184715442
 C         -4.8974871273        0.6151385356        0.0734316062
 C         -3.7270431483       -0.7742173776        1.8054997060
 C         -1.5409423817       -0.0610435449       -0.2461470350
 C         -1.9530480945       -1.4689623940       -0.4577880810
 C         -2.9514373870       -1.7425426977       -1.3940131160
 C         -3.3852972922       -3.0343963333       -1.6271996469
 C         -2.8275737489       -4.0922507560       -0.9293509517
 C         -1.8368795379       -3.8379703415        0.0023268506
 C         -1.4067242239       -2.5435857459        0.2350875557
 C         -0.1894565918        0.3766187011       -0.8029298393
 C         -0.1994979318        0.3722077388       -2.3607292050
 C         -1.3603215560        1.1973349869       -2.9175844374
 C         -0.1833217712       -1.0126475072       -3.0029588032
 P          1.1135295312       -0.9092021066       -0.1897296043
 C          2.7068902243       -0.2843875705       -1.0164943860
 C          3.5899966628        0.7408456213       -0.3098068523
 C          4.7530775988        1.1332470295       -1.2215488086
 C          5.5899626376       -0.0894667710       -1.5826233456
 C          4.7185739631       -1.1418022883       -2.2605045403
 C          3.5473958382       -1.5194753226       -1.3585177993
 C          1.4392489613       -0.4105096751        1.6097781554
 C          0.2101184560       -0.2331348591        2.4993923056
 C          0.6519272217        0.1706249837        3.9056166507
 C          1.5475380023       -0.9055761755        4.5125352085
 C          2.7588152962       -1.1517766554        3.6183339175
 C          2.3153073792       -1.5168692963        2.2043157799
 C          0.2149890655        1.7858213216       -0.3294827550
 H          0.4693836218        5.7416570470        0.7839378772
 H          1.1618211887        4.1302981863        0.9645916291
 H         -0.3296330069        4.5483670502        1.8116869125
 H          0.0156435664        4.3140627246       -1.2076827788
 H         -2.4670656648        4.7200576400       -1.2746965456
 H         -2.4133435426        5.1200750437        0.4469066362
 H         -1.5306149531        6.1067741836       -0.7128903002
 H         -2.9370850841        2.9136672869        0.4375126292
 H         -3.8085092850        1.3426135849        1.7509239731
 H         -5.8220366467        0.6507240141        0.6467288461
 H         -4.9309806966       -0.2575617146       -0.5701925479
 H         -4.8424028827        1.5079565789       -0.5462411361
 H         -3.8210319953       -1.6300865930        1.1486421972
 H         -4.5807347192       -0.7668202783        2.4816621681
 H         -2.8220285616       -0.8831969518        2.3959698439
 H         -3.3881261890       -0.9326750721       -1.9573212752
 H         -4.1610723164       -3.2171738295       -2.3577170505
 H         -3.1640829186       -5.1024620108       -1.1092339761
 H         -1.3977765389       -4.6549081769        0.5570794838
 H         -0.6530123030       -2.3725597013        0.9837965112
 H          0.7161747036        0.8795886871       -2.6813036596
 H         -1.2958866699        2.2274354056       -2.5825443343
 H         -1.3347669615        1.1832382136       -4.0063454468
 H         -2.3107912490        0.7946800124       -2.5887071238
 H          0.6097797657       -1.6206446661       -2.5735035813
 H         -0.0030171718       -0.9181906874       -4.0734891956
 H         -1.1243394609       -1.5272302139       -2.8570263092
 H          2.3881965968        0.1480842480       -1.9681597366
 H          4.0004291950        0.3159914037        0.6057917274
 H          3.0239466139        1.6374861572       -0.0579552660
 H          5.3784127139        1.8767298992       -0.7210878404
 H          4.3639536117        1.5861580296       -2.1363806541
 H          6.4104980631        0.2001782628       -2.2422612058
 H          6.0238473852       -0.5110228751       -0.6733532514
 H          4.3357868898       -0.7421639899       -3.2021732618
 H          5.3137522040       -2.0280219991       -2.4905255136
 H          2.9227878999       -2.2648999669       -1.8568108265
 H          3.9344643043       -1.9726136433       -0.4451424710
 H          2.0109866414        0.5210030240        1.6361423510
 H         -0.4617614895        0.5221119378        2.0955522014
 H         -0.3412774891       -1.1698147971        2.5735412948
 H          1.1995964031        1.1151400222        3.8631064144
 H         -0.2251152427        0.3233002523        4.5391443862
 H          1.8743928227       -0.6050772436        5.5103382851
 H          0.9785918810       -1.8324490037        4.6114410895
 H          3.3728405510       -1.9532069759        4.0356412272
 H          3.3701108875       -0.2465890559        3.5837656963
 H          1.7494612732       -2.4505344144        2.2308553720
 H          3.1931536347       -1.6824035225        1.5791085199
 H          0.7124168811        1.7235174894        0.6392437121
 H          0.9357232405        2.2042997736       -1.0346154285
