  85
        -99.15018793
 C          0.0284600525        4.7137720396        1.5168996965
 C         -0.5023543953        3.4627542320        2.2333652923
 C          0.5380262180        2.9795429608        3.2511046143
 C         -0.8798090254        2.3723710647        1.2743741360
 C         -2.2102517861        2.0738073516        1.0134229780
 C         -2.5840213158        1.0314627181        0.1958800119
 C         -4.0338903306        0.8556996432       -0.1932871477
 C         -4.9803356530        0.9360975990        1.0087946264
 C         -4.4486170048        1.9104211339       -1.2285479645
 C         -1.5692481869        0.1529550571       -0.3911311790
 C         -1.9079887120       -1.2049836182       -0.6105350524
 C         -2.8359576388       -1.8420591137        0.2616265902
 C         -3.2188190301       -3.1470581604        0.0849643968
 C         -2.7287494314       -3.8929945638       -0.9838890039
 C         -1.8184544713       -3.2995814209       -1.8502359091
 C         -1.4009909044       -2.0017466844       -1.6657706365
 C         -0.2169595151        0.7686096085       -0.6359031102
 C         -0.1815447787        1.6569378735       -1.9173692025
 C         -0.8976819518        2.9938375819       -1.7561349206
 C         -0.7519180447        0.9274356749       -3.1307864476
 P          1.1643482014       -0.5679125653       -0.9068553789
 C          2.8202666332        0.2634056523       -0.4791651881
 C          3.8501041083       -0.8253041791       -0.8043936954
 C          5.2618484986       -0.3867621279       -0.4309730743
 C          5.6329703360        0.8789214896       -1.1946463717
 C          4.6081255048        1.9702735808       -0.9108660184
 C          3.1959151743        1.5105867812       -1.2770630700
 C          0.9432092675       -1.6456636876        0.6452568333
 C          1.0992924455       -3.1088559454        0.2182815590
 C          0.6019579378       -4.0396809702        1.3189386438
 C          1.3839062878       -3.8010156530        2.6061472775
 C          1.2820912482       -2.3356255129        3.0156339393
 C          1.7891550106       -1.4204211382        1.8997719022
 C          0.1896029407        1.5797181893        0.6166239666
 H          0.9281706105        4.4824681849        0.9514109337
 H          0.2735518510        5.4847573977        2.2439548958
 H         -0.7217633497        5.1105900003        0.8365721321
 H         -1.4032635503        3.7558218102        2.7816318950
 H          0.7047830960        3.7431137877        4.0074169008
 H          0.1940412920        2.0744466553        3.7474810083
 H          1.4862530582        2.7724338713        2.7622310378
 H         -2.9680332418        2.7117285449        1.4442893385
 H         -4.1563545928       -0.1229766008       -0.6592774066
 H         -4.6534614916        0.2782638335        1.8106629989
 H         -5.9830514639        0.6382226293        0.7095590774
 H         -5.0340693120        1.9487655295        1.3993231301
 H         -5.5026602884        1.7968553960       -1.4737402637
 H         -3.8731892604        1.7962040709       -2.1439714873
 H         -4.2934309581        2.9137725524       -0.8377757618
 H         -3.1891212044       -1.2968101757        1.1217309001
 H         -3.9065922204       -3.6030234510        0.7843112755
 H         -3.0469046798       -4.9131536865       -1.1332639374
 H         -1.4323492957       -3.8670307665       -2.6863167980
 H         -0.7201461210       -1.5690027071       -2.3745281887
 H          0.8654136379        1.8668538923       -2.1373733488
 H         -0.7499535802        3.5948219424       -2.6533420329
 H         -1.9586751402        2.8386428830       -1.6124962655
 H         -0.5139987091        3.5470190709       -0.9086858607
 H         -0.1160251205        0.0900488440       -3.4051043899
 H         -0.7954181375        1.6042635579       -3.9826164830
 H         -1.7528600582        0.5638432655       -2.9216092801
 H          2.8734731522        0.5046587831        0.5840658859
 H          3.8119109201       -1.0322211099       -1.8761390228
 H          3.6048686213       -1.7488502429       -0.2838330702
 H          5.9726359825       -1.1839875080       -0.6595659941
 H          5.3119542618       -0.1901987794        0.6424953968
 H          6.6307094494        1.2169885104       -0.9073975934
 H          5.6452461639        0.6640247467       -2.2649090579
 H          4.6396915527        2.2238509457        0.1515306142
 H          4.8569114252        2.8713706772       -1.4763219086
 H          2.5145964566        2.3350228144       -1.0716205426
 H          3.1583650886        1.2874962226       -2.3449523035
 H         -0.1057146162       -1.5019537032        0.9238971012
 H          0.5268107619       -3.2862045901       -0.6906830512
 H          2.1470469327       -3.3299678584        0.0081937455
 H         -0.4572467342       -3.8465879112        1.4927002265
 H          0.7075249287       -5.0806415892        1.0056933917
 H          1.0008444324       -4.4391039169        3.4053856339
 H          2.4331667314       -4.0590113144        2.4460453050
 H          1.8635948184       -2.1631467429        3.9251737257
 H          0.2391521863       -2.0964276584        3.2334961957
 H          2.8348572852       -1.6560962833        1.7076552887
 H          1.7321443740       -0.3907643706        2.2561831795
 H          0.5448576254        0.8497529293        1.3510503603
 H          1.0327716518        2.2278625362        0.3767955977
