85
 energy: -99.233641696592 gnorm: 0.000031683656 xtb: 6.7.1 (edcfbbe)
C           -0.07991430062571        4.46590482944599        1.13152228009306
C           -0.83685532840662        4.02977470893928       -0.12976970325596
C           -2.06594393063009        4.91414471459474       -0.33311670829936
C           -1.15993497241280        2.55887193919741       -0.05202781163360
C           -2.35575869566539        2.04677298235841        0.22738918269255
C           -2.60456480082956        0.61229994348826        0.25039551705582
C           -3.94156789798863        0.26477535157655        0.88634833647184
C           -5.08026951438261        0.28326930159271       -0.13913499027797
C           -3.97511322499447       -1.03056980953810        1.69673063046306
C           -1.71683170069663       -0.24172508278660       -0.29664182249365
C           -2.06881994712131       -1.66298814005227       -0.52632422831623
C           -2.94628693874142       -2.00577701392771       -1.55263010976485
C           -3.28547990478699       -3.32605130791308       -1.78935038899521
C           -2.75706698405876       -4.33312290692803       -0.99975332763464
C           -1.90353188675571       -4.00493849035509        0.03926392881907
C           -1.56810471661052       -2.68334833629336        0.27419705561320
C           -0.36080565720924        0.24360738204649       -0.80726629452301
C           -0.31561994396746        0.35376663887677       -2.36065691341288
C           -1.41145368342054        1.26999866227949       -2.90795944059492
C           -0.35188633793165       -0.97571474813771       -3.11774668189218
P            0.96255702146039       -1.07723508209794       -0.31101800534498
C            2.56514427541841       -0.51850891248967       -1.14976230327636
C            3.11785315834740        0.91371420375833       -1.05175622835645
C            4.64769817902197        0.92854119462468       -1.16111869742218
C            5.11350886170905       -0.08335494399767       -2.20197178871537
C            4.80885317645158       -1.51350649847309       -1.73295585055897
C            3.63429762176328       -1.54144893410803       -0.74922970988059
C            1.20313107282434       -0.83331316401849        1.56037443594390
C            1.54861404567347       -2.21432137687601        2.13778264601131
C            1.18312665475683       -2.27240374845844        3.62499803114457
C            1.41990997628697       -0.91421331648952        4.29776601799460
C            2.56780609145647       -0.18864489638696        3.60508793202461
C            2.20969349391900        0.16602909896487        2.14929250990534
C           -0.00741453024795        1.60783499666897       -0.19317611998096
H           -0.68757826158432        4.28186047968935        2.01538000490910
H            0.14989812305105        5.52838450995697        1.08426161992989
H            0.85376073685736        3.91835706609296        1.23258012738642
H           -0.16870237035094        4.17806310724830       -0.98911876873235
H           -2.64885656769721        4.57365738474223       -1.18635087359809
H           -2.70037749950512        4.90562351986730        0.55009556358180
H           -1.75598109377413        5.94127742649954       -0.51575297847211
H           -3.21056116762865        2.68036811623958        0.40861723987536
H           -4.13971057426485        1.07804823811744        1.59811598541676
H           -5.03658892777464        1.18522525521507       -0.74695608870862
H           -6.04186649453074        0.25761304083806        0.37073769319231
H           -5.01915193181365       -0.58228568106821       -0.79266429269297
H           -4.86576453388148       -1.03872260029130        2.32372620379120
H           -3.10290157102688       -1.10184186828656        2.34255204452561
H           -4.00607556425460       -1.90670989530556        1.05687471681071
H           -3.36869254396013       -1.22915171403723       -2.17473098581425
H           -3.96682062868284       -3.56909132864284       -2.59320568536859
H           -3.01895113390779       -5.36476384360580       -1.18626526910822
H           -1.50359456638668       -4.78162712720812        0.67591360440569
H           -0.94802147356328       -2.43303910098362        1.11894719239001
H            0.64520969462589        0.82807011933350       -2.59254570012909
H           -1.36983732888475        1.28021685706230       -3.99601966787660
H           -2.39410778617054        0.91885850945855       -2.60388724134386
H           -1.29158053927029        2.28838822633145       -2.55010498264794
H            0.24808177780716       -1.73549473285754       -2.61914195962858
H            0.04090678243165       -0.83197705665095       -4.12370095440996
H           -1.36372676215124       -1.35546069992960       -3.20296141081980
H            2.34139756243802       -0.72128964604537       -2.20577135419171
H            2.82672267460095        1.39970073139225       -0.12324372103470
H            2.71100684900149        1.50704429600260       -1.87468739219332
H            5.10364300493792        0.69043833966717       -0.19791389909134
H            4.97703477345986        1.93300103942288       -1.43723023030580
H            4.59639121942818        0.12129246131489       -3.14227160143591
H            6.18350283688806        0.02951808851984       -2.38697651569861
H            4.57771293098250       -2.13764866346134       -2.59859089306724
H            5.68756204328511       -1.94327569175692       -1.24671366131836
H            3.19444705169476       -2.54282187234639       -0.73256891111461
H            3.99336465191574       -1.33096503994121        0.25837329726759
H            0.19266689722595       -0.56894152980445        1.90412775521858
H            1.03372996393248       -3.01059804392810        1.59585295810588
H            2.61761104011377       -2.39105841855461        2.00890876061058
H            0.13509859106887       -2.55853997623264        3.74111456209431
H            1.78701947792506       -3.04076698917944        4.11267939354345
H            0.51978144870126       -0.29814637064900        4.23791277701423
H            1.64761862999992       -1.05462931135377        5.35630319734821
H            3.45100301073609       -0.83058534505567        3.63079138101620
H            2.81636179881010        0.72622021889545        4.14752083771307
H            3.12898173975713        0.16750135128807        1.56678414882732
H            1.79992724275110        1.17773377720566        2.13003889556535
H            0.37984081366021        1.44881165047559        0.81498311027273
H            0.78019722139333        2.07604149720713       -0.78159841168640
