75
 energy: -113.204547544860 gnorm: 0.000049453397 xtb: 6.7.1 (edcfbbe)
C            5.47398794149691       -4.49065190879985       -0.15011676552376
C            6.10102189627944       -3.64889117780681        0.75979876562228
C            5.68403585623758       -2.34114763255641        0.90390459819046
C            4.63122193479004       -1.84971047347981        0.12731285503933
N            4.18954017468935       -0.53684704270055        0.27359893592626
C            5.09910921050916        0.48697628505375        0.54884444849959
C            4.74371280129273        1.53489999373044        1.40098884770543
C            5.64473121282968        2.54507948914968        1.67171615930585
C            6.90963353212996        2.53015996110026        1.10038132425837
C            7.26702220493305        1.49330156377009        0.25304965063974
C            6.37343642965207        0.47710538971839       -0.02497947170880
C            2.83527609325005       -0.24501330891751        0.10921028459424
C            1.87682749609263       -1.18753809791570        0.61480095822812
C            0.51121622663914       -0.92480141503706        0.48577620563631
C            0.10132287753757        0.22618264698623       -0.12230382177721
C            1.05996610071807        1.18917129229353       -0.64023733951967
C            2.43260701149967        0.92099301340148       -0.49867599748133
C            0.36185493319778        2.24310295172911       -1.24428114954839
C            0.80209298832059        3.41672122833248       -1.90361963661998
C           -0.12969160657904        4.29455689535318       -2.39645524017157
C           -1.50267044365205        4.05653602657290       -2.26667473408283
C           -1.95822635238586        2.89903158115191       -1.61821669368465
C           -1.04668423907687        2.01514766103101       -1.12056099275890
C           -1.31087198497732        0.70814618033790       -0.38287455483317
C           -2.05142420628795       -0.25853111244651       -1.27052838571339
C           -1.47707103601854       -0.63037520822052       -2.47732904373717
C           -2.11697040861088       -1.49983363310438       -3.34142528541634
C           -3.35882298302846       -2.01009216022957       -2.99596382971640
C           -3.94746435723916       -1.65491009610054       -1.80024368646849
C           -3.30484068342918       -0.77653796277747       -0.92056829430794
N           -3.90352587965804       -0.43017757826045        0.27743131900320
C           -5.18952684708968       -0.96372732833688        0.58751060533604
C           -5.29411547169466       -2.16883251296678        1.27105506541431
C           -6.54433117943930       -2.68182688549192        1.56985028237480
C           -7.68688012120222       -1.99662187939470        1.18878810899929
C           -7.58045623298244       -0.79488943757825        0.50722582588568
C           -6.33377391796963       -0.27533682003973        0.20464764455976
C           -3.29031511143789        0.41297758970910        1.18719928830379
C           -3.91899884027043        0.71619013518633        2.39999109913807
C           -3.31606324625786        1.55281792167218        3.31615567128965
C           -2.07359771474559        2.10440384011816        3.04547282026233
C           -1.44751932743337        1.80992066572601        1.84797704394890
C           -2.03643247647731        0.97265249219503        0.91208816460962
C            4.00556257104286       -2.70083558466701       -0.79175329236382
C            4.42608150972598       -4.01048442714050       -0.91932283592678
H            5.80264882445613       -5.51322530004409       -0.25738926878950
H            6.91308015430931       -4.01922364557799        1.36776762747695
H            6.15665286060861       -1.69358415546205        1.62784414244536
H            3.76206167584794        1.54004617367366        1.85134091351370
H            5.36154253933746        3.34644137526425        2.33797416206507
H            7.60987621043086        3.32351665584298        1.31346348652231
H            8.24644957387710        1.47920829403166       -0.20193022637398
H            6.64670348446709       -0.32202895961242       -0.69815424612520
H            2.22292607691153       -2.05471160258793        1.15238231772232
H           -0.20687458181118       -1.63215076955906        0.87811506789889
H            3.16272460950660        1.61773774861492       -0.88445781052216
H            1.86021611862621        3.60933890698802       -2.01071888308674
H            0.19756792242303        5.19488801890645       -2.90041473619941
H           -2.21298185870427        4.76533231974186       -2.66528259423262
H           -3.02096193125542        2.71939790433605       -1.51862327591260
H           -0.51159797991368       -0.22083075792204       -2.73716874776352
H           -1.65293869451949       -1.77453879356702       -4.27653016576596
H           -3.87247333911371       -2.68879482070980       -3.66069582474536
H           -4.91456768518263       -2.05707180330326       -1.54023628848075
H           -4.39596914791543       -2.69311473834029        1.56286892012824
H           -6.62559359183823       -3.61827848251109        2.10117202309901
H           -8.66079425524794       -2.39913991702329        1.42338379094609
H           -8.46959426508026       -0.25941180369669        0.20957567227039
H           -6.23782166097242        0.66053412389566       -0.32616245983270
H           -4.88670154476492        0.29209307418500        2.61982396169871
H           -3.81954901795615        1.77465213139069        4.24548392382770
H           -1.59831801293534        2.76032844504170        3.75895970577515
H           -0.48153757812953        2.23798054082203        1.62253251293412
H            3.20511557074713       -2.31822327375035       -1.40708612917185
H            3.93812796676018       -4.65763502204300       -1.63331573876322
