75
 energy: -113.306840910885 gnorm: 0.000037105108 xtb: 6.7.1 (edcfbbe)
C            5.60376884586084       -4.48174290806389       -0.16759231536401
C            6.16362078309448       -3.63914881704086        0.77943355458407
C            5.69594226316776       -2.34815902853467        0.93234621693047
C            4.65921712901806       -1.87551624766309        0.12720859757437
N            4.18485708664376       -0.56706166304385        0.27328934278090
C            5.07216662242291        0.47794224831287        0.55426668348937
C            4.69041215876408        1.52254787380099        1.39708953364111
C            5.56608861211192        2.55659136776371        1.66639637622020
C            6.83580190890421        2.56479810753366        1.11147059641670
C            7.22186667291072        1.52821413307711        0.27685706683830
C            6.34992692408096        0.49450937816868       -0.00596311057001
C            2.81668575277377       -0.29872802825353        0.12774286316740
C            1.86959757787333       -1.19205260856551        0.63350012337825
C            0.51250471437780       -0.94602340154459        0.50045180283040
C            0.10166315719663        0.20677822156077       -0.13338750142170
C            1.04533780346035        1.11124482889311       -0.64191820095085
C            2.39952791475068        0.86426391516052       -0.52160415228500
C            0.33455709817665        2.22209459175982       -1.25772192254859
C            0.80023638671766        3.35932908750054       -1.89701101227984
C           -0.12344984785618        4.26391123145161       -2.39677803817527
C           -1.48519929795444        4.03876876070890       -2.26065259740266
C           -1.95686255052457        2.90083472696531       -1.61912643126534
C           -1.04275306869097        1.99814531098158       -1.12161495125337
C           -1.31015057017007        0.69558874792292       -0.38861417620747
C           -2.06365618644954       -0.26508438147327       -1.27806238454851
C           -1.49401352766226       -0.64314464141239       -2.48462656710963
C           -2.14336586734791       -1.50543899003013       -3.34912531615479
C           -3.38965943649356       -1.99844907441500       -3.00138506395187
C           -3.97201026346589       -1.63489264362747       -1.80416863694188
C           -3.32031716534156       -0.76533493757204       -0.92450310812736
N           -3.91660306984123       -0.40965788742664        0.27406825419487
C           -5.20705924445937       -0.92950690408249        0.58658994390242
C           -5.32574553638035       -2.14292339745024        1.25259382866089
C           -6.58095295670575       -2.64225367131543        1.55378996314840
C           -7.71597929146825       -1.93471464078126        1.19238991537216
C           -7.59686234343180       -0.72505036574986        0.52781605366479
C           -6.34459940738858       -0.21997118086334        0.22348191432433
C           -3.28647975053325        0.41983728568726        1.18700737593128
C           -3.90264821251716        0.72416196668203        2.40455124403537
C           -3.28605829898772        1.54886837438476        3.32343883306245
C           -2.03995791162467        2.08783276944066        3.05161399841024
C           -1.42488449472220        1.79100884758946        1.84912479172233
C           -2.02907190459900        0.96569108563055        0.91268954711095
C            4.10078719572482       -2.72748347500070       -0.82614445271837
C            4.56951586207964       -4.01958741291666       -0.96560117948675
H            5.97006774956005       -5.49095942432741       -0.28211144474798
H            6.96602538053329       -3.99226475065812        1.41102942161823
H            6.12816715559507       -1.69672188426224        1.67814449933353
H            3.70476449204969        1.51474880076702        1.83974555476220
H            5.25723116736523        3.35747798294730        2.32263763938863
H            7.51857918443000        3.37289896405101        1.32720792308286
H            8.20755788626681        1.52824005871148       -0.16572047009161
H            6.65099351101725       -0.30649829872265       -0.66551730552059
H            2.20835946097019       -2.08554421786647        1.13716900906351
H           -0.20787270910822       -1.64558102502352        0.89903442619553
H            3.13000296460450        1.55283692387427       -0.91963191040751
H            1.86008358767894        3.53877620982414       -2.00381588346055
H            0.22121689437772        5.15658824033207       -2.89881327758858
H           -2.18737364200861        4.75730378951345       -2.65812467532186
H           -3.01833269394086        2.72794594479029       -1.51344697373138
H           -0.52267848854930       -0.24809128934403       -2.74682859612479
H           -1.68261664099960       -1.78633489501446       -4.28409595967815
H           -3.91397513212602       -2.67119581343203       -3.66430358150611
H           -4.94404159637205       -2.02510337852271       -1.54359834054704
H           -4.43363348644887       -2.68568625892054        1.52931040856949
H           -6.67231169669136       -3.58557381501989        2.07150707685959
H           -8.69402681666520       -2.32642279650241        1.42889689242856
H           -8.48054530485475       -0.17221625839908        0.24544692055250
H           -6.23967493660891        0.72243695967313       -0.29403730823544
H           -4.87370708591738        0.30927311923222        2.62798027074927
H           -3.78356923288872        1.76961735371096        4.25655761285720
H           -1.55279292417941        2.73390482034029        3.76615512955327
H           -0.45327958547182        2.20774397048787        1.62437386979955
H            3.29968614707337       -2.36737078873343       -1.45548105633160
H            4.12936614621703       -4.66725671483084       -1.71010277068402
