  60
        -98.11926772
 C         -6.4511628983       -4.1368756028       -0.5800656320
 C         -5.4547054277       -3.5917739178       -1.3733823719
 C         -5.0441096785       -2.2866855915       -1.1827809532
 C         -5.6250688204       -1.5081586409       -0.1825708716
 N         -5.2144414683       -0.1824922706        0.0158974217
 C         -6.1732602168        0.7914088566        0.3241645497
 C         -7.4275112729        0.7599817258       -0.2843817399
 C         -8.3762104236        1.7140785606        0.0283789875
 C         -8.0900141307        2.7144748499        0.9429886174
 C         -6.8446031583        2.7509703939        1.5487716475
 C         -5.8917722518        1.7969503156        1.2483562202
 C         -3.8702236787        0.1575911927       -0.0874495534
 C         -2.8716346775       -0.7488958336        0.2837052494
 C         -1.5449858142       -0.4076738982        0.1791658654
 C         -1.1528133114        0.8518129859       -0.2935282921
 C          0.2615461179        1.1613447693       -0.3706599264
 C          0.7810957830        2.4150099945       -0.6899933253
 N          2.0802914464        2.6453488115       -0.7276913024
 C          2.9540148141        1.6957882989       -0.4640343092
 N          4.2510816853        1.9019226096       -0.4862246932
 C          5.0749084643        0.9029068697       -0.2094530874
 C          4.5699793979       -0.3909846371        0.1057193654
 N          3.2730727998       -0.6328045993        0.1388138219
 C          2.4215278249        0.3446239328       -0.1255587503
 N          1.1309293228        0.1704464767       -0.0994768400
 C          5.6931396103       -1.2727390438        0.3583935556
 C          5.8495601546       -2.5940779565        0.6969169869
 C          7.1583128746       -3.0877881643        0.8603347850
 C          8.2779983738       -2.3074838903        0.6973063397
 C          8.1517586906       -0.9421195688        0.3484121785
 C          9.1797190945        0.0086398443        0.1416592602
 C          8.8661907875        1.3038437046       -0.1942518645
 C          7.5421724294        1.7577448423       -0.3509055274
 C          6.5205739344        0.8602725852       -0.1570659008
 C          6.8496773717       -0.4737386068        0.1897102097
 C         -2.1550895625        1.7526147411       -0.6679174317
 C         -3.4848439352        1.4128896497       -0.5686097862
 C         -6.6263461936       -2.0613078555        0.6143687002
 C         -7.0350717915       -3.3652031536        0.4112224316
 H         -6.7709872048       -5.1560822467       -0.7339027620
 H         -4.9989301786       -4.1840901906       -2.1529097300
 H         -4.2739880788       -1.8593031159       -1.8078326904
 H         -7.6488998529       -0.0151821557       -1.0032506410
 H         -9.3429931971        1.6801744333       -0.4516832429
 H         -8.8327308531        3.4598706283        1.1828069520
 H         -6.6154061462        3.5231923168        2.2681766744
 H         -4.9253510503        1.8195937740        1.7300756556
 H         -3.1520461841       -1.7197771940        0.6641185272
 H         -0.7761738169       -1.1046523458        0.4730549709
 H          0.1522004382        3.2621970097       -0.9117155160
 H          5.0003650823       -3.2450591592        0.8362749698
 H          7.2788678858       -4.1282462284        1.1262364589
 H          9.2615064081       -2.7330632947        0.8348175006
 H         10.2120298859       -0.2906801085        0.2503937772
 H          9.6667317988        2.0135255323       -0.3471760165
 H          7.3473598031        2.7854459471       -0.6159349772
 H         -1.8980325644        2.7248719830       -1.0583921076
 H         -4.2442330367        2.1172380889       -0.8744923334
 H         -7.0764628666       -1.4626240248        1.3926132672
 H         -7.8094685801       -3.7835217001        1.0369951449
