  60
  -97.7787817983000       0.252802817838559      !
 C         -8.1008591896       -2.8072522957       -0.4676458961
 C         -6.9057168038       -2.8760232971       -1.1649876121
 C         -5.9545681928       -1.8844156622       -1.0225145216
 C         -6.1862725075       -0.8081373268       -0.1669894978
 N         -5.2236165899        0.2000830280       -0.0135818446
 C         -5.6440908770        1.5333513060        0.0830758300
 C         -6.7141693410        1.9877647203       -0.6870701780
 C         -7.1383919154        3.2983437198       -0.5841412453
 C         -6.5011432219        4.1760697531        0.2776041861
 C         -5.4366391318        3.7296427526        1.0437724341
 C         -5.0106328636        2.4184964177        0.9545902247
 C         -3.8739271779       -0.1269251564        0.0500596320
 C         -3.4634536590       -1.3427353651        0.6067187365
 C         -2.1308752267       -1.6802600878        0.6589785154
 C         -1.1508054855       -0.8122759894        0.1684956444
 C          0.2633190473       -1.1342802945        0.2008931772
 C          0.7614137054       -2.4248753602        0.3675646204
 N          2.0576839077       -2.6771210204        0.3761178117
 C          2.9434008661       -1.7145132805        0.2300922944
 N          4.2381076229       -1.9394879650        0.2393050599
 C          5.0768065017       -0.9260845334        0.0937297690
 C          4.5929800629        0.4028106957       -0.0729526931
 N          3.2986113247        0.6629908539       -0.0981435812
 C          2.4321039558       -0.3254912439        0.0444486296
 N          1.1427174171       -0.1307065870        0.0353939905
 C          5.7309085210        1.2932186474       -0.1933019889
 C          5.9102880922        2.6446298706       -0.3573424006
 C          7.2279603344        3.1370073479       -0.4256971049
 C          8.3350660470        2.3271694173       -0.3378250463
 C          8.1855435025        0.9303947168       -0.1686819923
 C          9.1978178587       -0.0527324815       -0.0578542273
 C          8.8626110697       -1.3751886380        0.1078999733
 C          7.5302845953       -1.8265022148        0.1781713633
 C          6.5238985960       -0.8977965816        0.0730039305
 C          6.8749653206        0.4638403256       -0.1007094487
 C         -1.5639471328        0.4130450783       -0.3680642586
 C         -2.8957234413        0.7473550542       -0.4354180411
 C         -7.3906532367       -0.7429776755        0.5322513351
 C         -8.3388821171       -1.7356154832        0.3773587528
 H         -8.8422403408       -3.5829845424       -0.5830434974
 H         -6.7152141710       -3.7037943454       -1.8319243835
 H         -5.0268222370       -1.9339048243       -1.5733885488
 H         -7.2058716778        1.3070415212       -1.3664767987
 H         -7.9669291134        3.6380294601       -1.1878494284
 H         -6.8333197248        5.2000972051        0.3534234239
 H         -4.9386342058        4.4050568050        1.7235996458
 H         -4.1889150407        2.0693996658        1.5621804048
 H         -4.2047274393       -2.0169181850        1.0093121961
 H         -1.8487339364       -2.6164853304        1.1153241465
 H          0.1163021996       -3.2821782601        0.4744099060
 H          5.0719817592        3.3199700969       -0.4321166253
 H          7.3662407662        4.2009969330       -0.5552340398
 H          9.3261589725        2.7532674954       -0.3967794270
 H         10.2356455121        0.2437751074       -0.1039408929
 H          9.6514158576       -2.1093989607        0.1889078657
 H          7.3178217910       -2.8762828189        0.3088982592
 H         -0.8113474103        1.0877197318       -0.7447705587
 H         -3.1949820649        1.6880237403       -0.8730065549
 H         -7.5733135304        0.0880974226        1.1975466494
 H         -9.2669926841       -1.6750982915        0.9261818013
  60
  -97.7786429508000       0.218258927863484      !
 C         -6.6610646180       -3.4022425625        1.7671112956
 C         -5.6571467135       -3.4461517438        0.8133631044
 C         -5.1777065344       -2.2805239518        0.2480116433
 C         -5.6959902541       -1.0468137865        0.6396481568
 N         -5.2153115840        0.1402492306        0.0693629470
 C         -6.1170342196        1.1711116435       -0.2257038155
 C         -7.3849378907        0.8742152528       -0.7244369877
 C         -8.2774406419        1.8906157927       -1.0046492339
 C         -7.9207782683        3.2135601943       -0.8001452237
 C         -6.6615120470        3.5135983034       -0.3066077770
 C         -5.7645963933        2.5039112416       -0.0161515453
 C         -3.8585349260        0.2917270050       -0.1942094516
 C         -2.8981348175       -0.3071129949        0.6277862272
 C         -1.5588711946       -0.1544031300        0.3624359979
 C         -1.1153354694        0.6051042209       -0.7284218727
 C          0.3105555040        0.7420528151       -0.9525910584
 C          0.8845083607        1.5752207700       -1.9117529051
 N          2.1923655865        1.6747273473       -2.0600579883
 C          3.0234712531        0.9870988572       -1.3044104971
 N          4.3283519801        1.0752928356       -1.4263709245
 C          5.1074711671        0.3566789474       -0.6327129980
 C          4.5460151614       -0.5129410289        0.3455357019
 N          3.2397652369       -0.6246513846        0.4964356440
 C          2.4321778768        0.0844756238       -0.2751405210
 N          1.1354388623        0.0245861313       -0.1676988030
 C          5.6293107036       -1.1640030602        1.0564597080
 C          5.7273741903       -2.0792218772        2.0751648135
 C          7.0132843410       -2.4684008653        2.4973775887
 C          8.1664508538       -1.9730929727        1.9369975958
 C          8.1004800918       -1.0287928892        0.8854137738
 C          9.1695563543       -0.4115719905        0.1929492403
 C          8.9133787172        0.4919549912       -0.8103958321
 C          7.6103960009        0.8527308851       -1.2049437010
 C          6.5500329347        0.2721435826       -0.5528376588
 C          6.8200763999       -0.6583446308        0.4812884531
 C         -2.0797750830        1.1976308323       -1.5499674650
 C         -3.4221850461        1.0434169927       -1.2898224659
 C         -6.7050389181       -1.0072965672        1.6008465214
 C         -7.1828404041       -2.1790217975        2.1551331746
 H         -7.0347686729       -4.3153595959        2.2044877872
 H         -5.2495028270       -4.3958545953        0.5001163925
 H         -4.4017890788       -2.3160494196       -0.5024034260
 H         -7.6611619135       -0.1565641732       -0.8913456682
 H         -9.2554821288        1.6476229213       -1.3928083256
 H         -8.6196927964        4.0051931606       -1.0228368468
 H         -6.3776257751        4.5418144435       -0.1375465006
 H         -4.7874394500        2.7385127209        0.3796548890
 H         -3.2178046423       -0.8848416280        1.4821844485
 H         -0.8192277530       -0.6101518144        1.0015309564
 H          0.2937191119        2.1880718212       -2.5734005274
 H          4.8501958718       -2.4951789743        2.5461927696
 H          7.0878761894       -3.1892951806        3.2989620424
 H          9.1304096546       -2.3025939158        2.2968972500
 H         10.1878800218       -0.6550874965        0.4590287510
 H          9.7445922311        0.9516515422       -1.3258210728
 H          7.4610423843        1.5675622048       -1.9993439849
 H         -1.7835870145        1.7721637328       -2.4136905060
 H         -4.1523277272        1.4980857947       -1.9429002635
 H         -7.1067446717       -0.0533367794        1.9095294738
 H         -7.9625580132       -2.1353502553        2.9010591278
  60
  -97.7786217841000       0.213424599789486      !
 C         -6.5158827298       -3.8186306297       -0.4617974542
 C         -5.4227234668       -3.3499533885       -1.1722196848
 C         -4.9879506439       -2.0489002266       -1.0096204813
 C         -5.6413917411       -1.1975796391       -0.1195402805
 N         -5.2074575077        0.1248323233        0.0545560864
 C         -6.1636059707        1.1412939186        0.1829657316
 C         -7.3329839442        1.1040553844       -0.5756755111
 C         -8.2795675734        2.1012378359       -0.4438837618
 C         -8.0744758907        3.1505630307        0.4369381968
 C         -6.9139208288        3.1923507208        1.1923227908
 C         -5.9647666168        2.1957117205        1.0732470336
 C         -3.8494500432        0.4204899529        0.0666055565
 C         -2.9221167552       -0.5061554278        0.5555988662
 C         -1.5766514442       -0.2291912181        0.5298461446
 C         -1.0971644097        0.9894236329        0.0339446982
 C          0.3341788022        1.2201672102       -0.0052275452
 C          0.9255670935        2.4684941535       -0.1881239127
 N          2.2365843738        2.6171296793       -0.2504596025
 C          3.0494031215        1.5870796792       -0.1436821612
 N          4.3551829063        1.7031899596       -0.2353420721
 C          5.1155014699        0.6256861138       -0.1185774592
 C          4.5357547572       -0.6532776458        0.1183278434
 N          3.2285477993       -0.8057314026        0.2202423174
 C          2.4383414678        0.2464468806        0.0897827481
 N          1.1397153994        0.1537966234        0.1451754990
 C          5.6011134176       -1.6335685081        0.1945683741
 C          5.6775036181       -2.9902275886        0.3918488139
 C          6.9507820530       -3.5920136623        0.3863752293
 C          8.1124069159       -2.8833428735        0.1925653968
 C          8.0687831110       -1.4840978404       -0.0132344122
 C          9.1490042797       -0.5958531623       -0.2313403020
 C          8.9145471576        0.7454603753       -0.4174477282
 C          7.6235788050        1.3085095300       -0.4050969019
 C          6.5529683430        0.4737903794       -0.1964891635
 C          6.8007019320       -0.9079721192       -0.0034238274
 C         -2.0278620261        1.9213388646       -0.4345468984
 C         -3.3753735971        1.6415090503       -0.4238524661
 C         -6.7411809581       -1.6733481378        0.5929046434
 C         -7.1734594800       -2.9736975364        0.4172653288
 H         -6.8534745298       -4.8353094883       -0.5931290749
 H         -4.9085281546       -3.9993605871       -1.8650250745
 H         -4.1419259766       -1.6819658257       -1.5717382064
 H         -7.4898215368        0.2904759742       -1.2685926254
 H         -9.1795744828        2.0623457835       -1.0395447221
 H         -8.8144797066        3.9299796080        0.5346495192
 H         -6.7497030927        4.0029451935        1.8868206731
 H         -5.0654349127        2.2232563851        1.6707108193
 H         -3.2725008144       -1.4458742363        0.9555744794
 H         -0.8631204884       -0.9479415378        0.9007113399
 H          0.3463409186        3.3742157193       -0.2721964006
 H          4.7928999098       -3.5885135033        0.5462950557
 H          7.0081374494       -4.6600300620        0.5410608022
 H          9.0658038349       -3.3915978552        0.1952911063
 H         10.1586464972       -0.9796860518       -0.2515309505
 H          9.7539579758        1.4057019891       -0.5827925536
 H          7.4909439350        2.3683675973       -0.5582193716
 H         -1.6952937570        2.8618067655       -0.8461634246
 H         -4.0767237700        2.3624820813       -0.8167616382
 H         -7.2495376152       -1.0172507559        1.2841215937
 H         -8.0249077435       -3.3314287768        0.9769566366
  60
  -97.7784015958000       0.169064700441690      !
 C         -7.8077053267       -2.6366605428       -1.6958725892
 C         -8.2514925194       -1.7964552902       -0.6878202535
 C         -7.3996611102       -0.8644696903       -0.1272406247
 C         -6.0848020801       -0.7552968387       -0.5781716170
 N         -5.2192331023        0.1951736639       -0.0221217895
 C         -5.7074783762        1.4605173925        0.3262332399
 C         -5.2342044867        2.1093038707        1.4664588436
 C         -5.7205109647        3.3558226616        1.8093122670
 C         -6.6875311741        3.9705227635        1.0306673575
 C         -7.1629263887        3.3287034790       -0.1012029978
 C         -6.6770269752        2.0855660734       -0.4571478414
 C         -3.8734911051       -0.1116953316        0.1620198064
 C         -3.4826514642       -1.4013779084        0.5338779467
 C         -2.1527420240       -1.7135629394        0.7012960704
 C         -1.1590938246       -0.7508193335        0.4995496564
 C          0.2561639690       -1.0394733349        0.6350909165
 C          0.7717521609       -2.1946036974        1.2199401626
 N          2.0707403055       -2.4172712573        1.2999465232
 C          2.9452197700       -1.5532309352        0.8284042358
 N          4.2416015154       -1.7614012517        0.8764752385
 C          5.0665766159       -0.8511781601        0.3829682228
 C          4.5653186798        0.3523147669       -0.1904903718
 N          3.2695417232        0.5962823067       -0.2499882066
 C          2.4164379347       -0.2973262177        0.2222509067
 N          1.1258738553       -0.1256532964        0.1681476743
 C          5.6895966654        1.1472246524       -0.6446891606
 C          5.8491924976        2.3630370765       -1.2623465023
 C          7.1580537490        2.7950199270       -1.5511518596
 C          8.2751327059        2.0560924464       -1.2423043711
 C          8.1457342991        0.7995324099       -0.6050071540
 C          9.1706117704       -0.0947998270       -0.2135613127
 C          8.8543403823       -1.2836529066        0.3990269903
 C          7.5301186665       -1.6798317453        0.6694373473
 C          6.5116015043       -0.8350292377        0.3014538721
 C          6.8434837891        0.3901051391       -0.3284864606
 C         -1.5567779601        0.5403992915        0.1300397946
 C         -2.8843618521        0.8575215073       -0.0307826366
 C         -5.6440580591       -1.6004222818       -1.5963880618
 C         -6.5009543441       -2.5347603149       -2.1444334661
 H         -8.4756183641       -3.3649229493       -2.1297329584
 H         -9.2675214869       -1.8714595596       -0.3294507399
 H         -7.7450397611       -0.2160143103        0.6644395879
 H         -4.4883588692        1.6264183535        2.0804996109
 H         -5.3480794438        3.8461414778        2.6965349923
 H         -7.0680981270        4.9426430271        1.3042284426
 H         -7.9124162947        3.8028439187       -0.7174830169
 H         -7.0421513510        1.5910280562       -1.3452037937
 H         -4.2379699563       -2.1571241659        0.6913971680
 H         -1.8874443328       -2.7211690056        0.9812089215
 H          0.1405159401       -2.9565333891        1.6484301941
 H          5.0022384404        2.9781261289       -1.5244325524
 H          7.2809627725        3.7519905522       -2.0378642616
 H          9.2588857784        2.4312513396       -1.4848855851
 H         10.2028187765        0.1634145864       -0.4002316488
 H          9.6526534463       -1.9511277719        0.6906925989
 H          7.3327664539       -2.6246411734        1.1520073412
 H         -0.7925764266        1.2828783831       -0.0372976177
 H         -3.1718788073        1.8564517147       -0.3234047511
 H         -4.6291539934       -1.5139341940       -1.9554826507
 H         -6.1477601375       -3.1811929964       -2.9342072275
  60
  -97.7782658887000       0.146448954066781      !
 C         -7.0516011619       -2.4804799923        2.7516752325
 C         -6.0916334340       -2.9422128239        1.8659929215
 C         -5.4847738093       -2.0762189754        0.9773418300
 C         -5.8280736214       -0.7244235050        0.9690098654
 N         -5.2190501254        0.1538229605        0.0656272440
 C         -5.9582377607        1.2030990445       -0.4956412846
 C         -7.2903543740        1.0156259674       -0.8617735582
 C         -8.0144696377        2.0584717496       -1.4066161593
 C         -7.4244591909        3.2965533546       -1.6020595098
 C         -6.0998437433        3.4865517124       -1.2433969416
 C         -5.3698613031        2.4526242373       -0.6905427802
 C         -3.8713947651        0.0104686425       -0.2569125267
 C         -2.9390329169       -0.3863334761        0.7060744184
 C         -1.6050807756       -0.4810739791        0.3865756237
 C         -1.1494488885       -0.2012335931       -0.9073369743
 C          0.2721776619       -0.2704986127       -1.1906635467
 C          0.8111835393       -0.3312841266       -2.4740839718
 N          2.1150252497       -0.3429771316       -2.6833961172
 C          2.9697481098       -0.2961689238       -1.6832373831
 N          4.2703970338       -0.2616892988       -1.8664175225
 C          5.0752492750       -0.2136548468       -0.8166180569
 C          4.5486221379       -0.2177287003        0.5066882979
 N          3.2477689419       -0.2583166983        0.7270042481
 C          2.4138823098       -0.2802949463       -0.2992006827
 N          1.1192945873       -0.2707585511       -0.1464411943
 C          5.6555709438       -0.1557020455        1.4410286579
 C          5.7894928352       -0.1227021460        2.8070940596
 C          7.0884085990       -0.0464878302        3.3459348663
 C          8.2202312663       -0.0028076529        2.5673101776
 C          8.1173692705       -0.0345326283        1.1565006127
 C          9.1599788970        0.0065331975        0.2001563574
 C          8.8688210821       -0.0292484353       -1.1425098488
 C          7.5540529310       -0.1061755675       -1.6413703635
 C          6.5189205006       -0.1474619355       -0.7395078343
 C          6.8247478193       -0.1118749491        0.6435786383
 C         -2.0887075455        0.1738228634       -1.8724033989
 C         -3.4228520884        0.2815654905       -1.5527576218
 C         -6.7904088795       -0.2633296770        1.8668213177
 C         -7.3974503248       -1.1390410000        2.7458000357
 H         -7.5271928743       -3.1611590777        3.4410235982
 H         -5.8201631967       -3.9875015975        1.8589319652
 H         -4.7450768984       -2.4400145128        0.2794594736
 H         -7.7493546640        0.0485489103       -0.7180603135
 H         -9.0453798579        1.9005886968       -1.6869555174
 H         -7.9931312230        4.1082287708       -2.0292305442
 H         -5.6330438719        4.4499792800       -1.3857758892
 H         -4.3407184505        2.6053155131       -0.4006023541
 H         -3.2732000718       -0.5977378577        1.7109947093
 H         -0.8814883474       -0.7617204411        1.1356266841
 H          0.1940130317       -0.3883914024       -3.3564598835
 H          4.9303134014       -0.1532531189        3.4591292650
 H          7.1910075159       -0.0205828237        4.4214222150
 H          9.1952786681        0.0575079913        3.0288140955
 H         10.1860193581        0.0672389333        0.5328806051
 H          9.6804098738        0.0033167188       -1.8553498850
 H          7.3762202151       -0.1296919244       -2.7053504397
 H         -1.7733884433        0.4039573934       -2.8782602821
 H         -4.1360876048        0.5826844945       -2.3057779457
 H         -7.0538846335        0.7840542767        1.8715603323
 H         -8.1396622927       -0.7686792300        3.4373738966
