  86
       -140.98466088
 C         -7.2211815310       -4.2013848642       -2.6465253408
 C         -6.5612468051       -4.4638120884       -1.2931931467
 N         -6.4639803603       -3.2634796110       -0.5062283916
 C         -7.4318196635       -2.7814633392        0.3453122437
 C         -8.6565725495       -3.3305949727        0.6991924981
 C         -9.4427138185       -2.6333521334        1.5962261022
 C         -9.0318905705       -1.4143970841        2.1316405050
 C         -7.8170054749       -0.8597318513        1.7826235901
 C         -7.0078185845       -1.5442877324        0.8861196996
 C         -5.7246855983       -1.2687188259        0.3059447118
 C         -4.8291081412       -0.2214336965        0.4390937084
 C         -3.6500797534       -0.2426261309       -0.2959296510
 C         -2.6713957512        0.8505951352       -0.1836425490
 C         -3.0355333712        2.1538182281       -0.1721148703
 C         -2.0881311199        3.2348218249        0.1435947676
 C         -2.0753637523        4.3978274801       -0.6245312692
 C         -1.1948805720        5.4225151931       -0.3333559554
 C         -0.3235553801        5.3088293272        0.7373200107
 C         -0.3435045046        4.1660972978        1.5203697243
 C         -1.2187381321        3.1375639807        1.2287744061
 C         -4.4105908935        2.5924996704       -0.4625443798
 C         -5.1092753735        2.0925434569       -1.5599610491
 C         -6.3927523614        2.5260202088       -1.8296231598
 C         -6.9993112929        3.4651038417       -1.0110387428
 C         -6.3080259594        3.9793952188        0.0729779537
 C         -5.0208894737        3.5529320029        0.3417263111
 C         -1.2672184460        0.4315774369       -0.0745629234
 C         -0.2621745267        1.0567652938       -0.8133093776
 C          1.0509153045        0.6537197798       -0.7004718062
 C          1.4037495546       -0.3999805094        0.1437542557
 C          2.8035945597       -0.8149839872        0.2773940815
 C          3.1528173662       -2.1622769030        0.4044062666
 C          4.4754180190       -2.5444061835        0.5390463045
 C          5.4713830750       -1.5824737489        0.5600637452
 C          5.1395751575       -0.2483089723        0.4285495117
 C          3.8241992297        0.1392502862        0.2812963728
 S          6.4220968502        1.0094856258        0.4344410819
 O          5.9112364216        2.1585052926       -0.2692871958
 O          6.8948345084        1.2258043043        1.7708417928
 C          7.7327538134        0.2920130449       -0.5671783913
 C          8.4010893340        1.0858672837       -1.4830235389
 C          9.4165607440        0.5368207243       -2.2516050622
 C          9.7496538214       -0.8023201995       -2.1107156121
 C          9.0677005442       -1.5969717054       -1.2013750103
 C          8.0636098367       -1.0413622878       -0.4276754602
 S          7.1853531538       -2.0719481561        0.7559427886
 O          7.3083886900       -3.4406495074        0.3242829668
 O          7.6310002214       -1.7683511228        2.0845882750
 C          0.3959856615       -1.0439528005        0.8615254724
 C         -0.9167000785       -0.6358036635        0.7521521208
 C         -3.3751763125       -1.3303855295       -1.1377229237
 C         -4.2533166590       -2.3836262670       -1.2837726343
 C         -5.4370889301       -2.3538511063       -0.5580325642
 H         -6.6438720284       -3.4730665611       -3.2116809171
 H         -7.2817844656       -5.1225141413       -3.2198618721
 H         -8.2256471630       -3.8088216621       -2.5052259055
 H         -7.1401711070       -5.2008777830       -0.7296727858
 H         -5.5542109656       -4.8655587620       -1.4379706438
 H         -8.9952787082       -4.2704897999        0.2896377892
 H        -10.3999026392       -3.0408896277        1.8865469120
 H         -9.6775105982       -0.8998699169        2.8274511592
 H         -7.4982095968        0.0872109115        2.1916915796
 H         -5.0402033562        0.5952060758        1.1119305038
 H         -2.7535620377        4.4865020633       -1.4616049850
 H         -1.1888757896        6.3143682165       -0.9429649820
 H          0.3638911559        6.1097536294        0.9649164704
 H          0.3243257987        4.0780859777        2.3648648293
 H         -1.2420773758        2.2548769584        1.8509365490
 H         -4.6349094853        1.3678161001       -2.2053616212
 H         -6.9231255009        2.1318732940       -2.6841689578
 H         -8.0045784404        3.7989138545       -1.2210672819
 H         -6.7729252104        4.7171604949        0.7107809220
 H         -4.4826732135        3.9527547800        1.1897508408
 H         -0.5204985920        1.8612733264       -1.4850094996
 H          1.8120309587        1.1409428225       -1.2913095727
 H          2.3811202598       -2.9169609236        0.3767039674
 H          4.7616703760       -3.5815059657        0.6216046851
 H          3.6097158816        1.1916465006        0.1847823027
 H          8.1059560138        2.1195335237       -1.5778125129
 H          9.9448711240        1.1550075320       -2.9617119422
 H         10.5386060229       -1.2303914836       -2.7102809334
 H          9.2901786794       -2.6454820009       -1.0772385714
 H          0.6499044257       -1.8490923645        1.5351323207
 H         -1.6855711412       -1.1334225732        1.3255727330
 H         -2.4522507911       -1.3292426710       -1.7006350086
 H         -4.0172417018       -3.2003040401       -1.9495301761
