  99
  -154.946499263900       0.527931017211772      !
 C         -6.8282646305        5.1982519807       -1.0822523847
 C         -5.5248871980        5.5605761998       -0.7671928905
 C         -4.5163985780        4.6227262036       -0.7926741302
 C         -4.7966328042        3.2939602171       -1.1371375784
 C         -3.7540336535        2.3020787278       -1.1426711071
 N         -4.0665957344        1.0195320712       -1.4917479491
 C         -3.0758587639        0.1384844786       -1.4923753731
 C         -3.4031958339       -1.2410296668       -1.8622032460
 C         -2.3994743196       -2.1254281906       -2.2497729113
 C         -2.7145101314       -3.4344072386       -2.5610570196
 C         -4.0281876678       -3.8713416916       -2.4897622649
 C         -5.0320748989       -2.9885737380       -2.1246626755
 C         -4.7251571341       -1.6781693991       -1.8156847302
 N         -1.8333612268        0.4179310175       -1.1653643425
 C         -1.5633573756        1.7068032674       -0.7782434037
 C         -0.2658589371        2.0327058620       -0.2790111647
 C          0.0126281117        3.3050901198        0.2546493748
 C          1.2432955744        3.5646785006        0.8111482152
 C          2.2172363848        2.5764957021        0.8800503920
 C          1.9632950124        1.3060929028        0.3540595420
 C          2.9737685310        0.2406767484        0.4717733746
 C          4.3045925281        0.5101944907        0.1852440724
 C          5.2723548000       -0.4850026878        0.2675428203
 N          6.6109926219       -0.1813516622       -0.0074510082
 C          7.4469779554       -0.8826590351       -0.8527105265
 C          7.1773963743       -1.9890716176       -1.6460716688
 C          8.2023948265       -2.4874297044       -2.4277840064
 C          9.4646154964       -1.8987570760       -2.4340372234
 C          9.7313287360       -0.7809747784       -1.6669580323
 C          8.7182061061       -0.2631016613       -0.8726734913
 C          8.6354375992        0.8667186829        0.0118660123
 C          9.5459449845        1.8335835199        0.4143788598
 C          9.1359273946        2.7913953766        1.3217510391
 C          7.8426875702        2.7819604536        1.8389237933
 C          6.9188707012        1.8293935135        1.4533854438
 C          7.3165574362        0.8810708615        0.5212728674
 C          4.9016874216       -1.7797319266        0.6231804557
 C          3.5778543131       -2.0586743726        0.8983441371
 C          2.6087920740       -1.0633604069        0.8500076525
 C          1.2057440838       -1.3626419517        1.1722466117
 C          0.5341551347       -0.6556245031        2.1685047383
 C         -0.8231394196       -0.8079799398        2.3465117152
 C         -1.5520700306       -1.6398381097        1.4944933240
 N         -2.9459047471       -1.6522154414        1.5371319039
 C         -3.7601777353       -2.7527187985        1.3436933819
 C         -3.4348143610       -4.1013423300        1.2953859069
 C         -4.4611173086       -5.0100118031        1.1150187044
 C         -5.7857523304       -4.5983598868        1.0053342739
 C         -6.1219364396       -3.2605456231        1.0949753097
 C         -5.1076459488       -2.3314822506        1.2682167993
 C         -5.0983721521       -0.9016395699        1.4178578419
 C         -6.0994260746        0.0583350852        1.3960716384
 C         -5.7490468243        1.3852762845        1.5556958273
 C         -4.4173668656        1.7544432294        1.7205038349
 C         -3.4021187619        0.8150760197        1.7345350572
 C         -3.7477618026       -0.5215824891        1.5887384395
 C         -0.8678809669       -2.4271817717        0.5690964321
 C          0.4974992124       -2.3028092863        0.4272538790
 C          0.7431987392        1.0593694566       -0.2522235538
 N         -2.5265355925        2.6244649874       -0.7988371399
 C         -6.1129905881        2.9381773480       -1.4566013927
 C         -7.1144737297        3.8843741549       -1.4273697807
 H         -7.6157338045        5.9370648754       -1.0604748903
 H         -5.3018429811        6.5838909008       -0.5007632838
 H         -3.4991527991        4.8915545488       -0.5511443811
 H         -1.3827953975       -1.7663090831       -2.3058175605
 H         -1.9338940349       -4.1189868233       -2.8613461081
 H         -4.2701429774       -4.8969628588       -2.7263188242
 H         -6.0567126838       -3.3262575725       -2.0794887026
 H         -5.4935960012       -0.9776862895       -1.5274511556
 H         -0.7572881575        4.0602991628        0.2226937747
 H          1.4524920801        4.5434595876        1.2191504110
 H          3.1609463837        2.7807759792        1.3639320375
 H          4.5886454900        1.4985612693       -0.1444076470
 H          6.1968286434       -2.4398366721       -1.6643816777
 H          8.0189289780       -3.3499162143       -3.0511270911
 H         10.2399186383       -2.3192711267       -3.0566932079
 H         10.7044835571       -0.3143709446       -1.6853419899
 H         10.5536862470        1.8310539775        0.0276620376
 H          9.8277479731        3.5546309270        1.6450778659
 H          7.5568387074        3.5333528532        2.5598974786
 H          5.9254222819        1.8168502795        1.8750263121
 H          5.6535981207       -2.5498036258        0.7051041150
 H          3.2896795286       -3.0582829872        1.1901281537
 H          1.0858003996        0.0268216955        2.7980450652
 H         -1.3279349248       -0.2792088174        3.1400847271
 H         -2.4177622633       -4.4410831440        1.4159232852
 H         -4.2283387509       -6.0633593772        1.0670237435
 H         -6.5594660622       -5.3381873122        0.8647109344
 H         -7.1514411648       -2.9415820583        1.0362950734
 H         -7.1296687254       -0.2304423487        1.2521120050
 H         -6.5096898351        2.1510273162        1.5366304026
 H         -4.1679561050        2.7987692070        1.8325898604
 H         -2.3740255162        1.1305379797        1.8203011535
 H         -1.4205975715       -3.0833401583       -0.0835995815
 H          1.0135177993       -2.8816715857       -0.3252455452
 H          0.5369577599        0.1112385019       -0.7223101739
 H         -6.3187819921        1.9124763994       -1.7214099139
 H         -8.1284205540        3.6032281265       -1.6742951373
  99
  -154.946157347700       0.367657451697162      !
 C         -6.8645832791        4.9439753971       -1.8080752252
 C         -5.5726721980        5.3596881728       -1.5117014391
 C         -4.5518802829        4.4408169038       -1.4100433510
 C         -4.8076315578        3.0765792760       -1.6040462381
 C         -3.7546080121        2.1068416213       -1.4713653945
 N         -4.0462033000        0.7852471406       -1.6607001471
 C         -3.0492583843       -0.0762948611       -1.5281546435
 C         -3.3573501837       -1.4964252359       -1.7184069262
 C         -2.3380665792       -2.4134045137       -1.9627476120
 C         -2.6357296995       -3.7554236218       -2.1048306616
 C         -3.9473625413       -4.1929477766       -2.0060238173
 C         -4.9662721923       -3.2804808989       -1.7830470062
 C         -4.6766253062       -1.9376107160       -1.6429274316
 N         -1.8144596781        0.2564549463       -1.2190625955
 C         -1.5642602821        1.5885294694       -0.9988698673
 C         -0.2769759459        1.9907803881       -0.5268167304
 C         -0.0191690319        3.3244939402       -0.1595373775
 C          1.1991346562        3.6673408967        0.3790408595
 C          2.1795717893        2.7066152950        0.5932313589
 C          1.9461609066        1.3765368530        0.2326044108
 C          2.9644207314        0.3450740325        0.4979860593
 C          4.2973464271        0.5886149003        0.1944169601
 C          5.2698818516       -0.3811379861        0.4082099256
 N          6.6070699697       -0.1196143385        0.0812597682
 C          7.0609987000        0.3814159398       -1.1226595460
 C          6.3515229063        0.6985170078       -2.2728179305
 C          7.0644844573        1.1605265206       -3.3628126662
 C          8.4499772736        1.2979288017       -3.3212320241
 C          9.1639704188        0.9608147663       -2.1875024094
 C          8.4700116443        0.4949204311       -1.0796594559
 C          8.8763757348        0.0428221323        0.2225715813
 C         10.1065737129       -0.0629189434        0.8558469253
 C         10.1434666549       -0.5290404343        2.1559772210
 C          8.9724646883       -0.8716120066        2.8279677072
 C          7.7358714892       -0.7740844794        2.2187210577
 C          7.6947196054       -0.3307544430        0.9040450737
 C          4.9070827456       -1.6185325951        0.9347605636
 C          3.5851321569       -1.8655016072        1.2470780486
 C          2.6076893187       -0.8974926598        1.0491909840
 C          1.2020297935       -1.1683441638        1.3888903417
 C          0.5060807523       -0.3440634747        2.2713905142
 C         -0.8527919120       -0.4883635238        2.4459057275
 C         -1.5586431596       -1.4336379991        1.6993264960
 N         -2.9532831473       -1.4539160883        1.7179701147
 C         -3.7567979923       -2.5772544547        1.6545204358
 C         -3.4229105856       -3.9179526946        1.7898460488
 C         -4.4400639815       -4.8509257240        1.7096900013
 C         -5.7645360478       -4.4684191456        1.5206447080
 C         -6.1101611361       -3.1332486904        1.4279632512
 C         -5.1049789095       -2.1811769039        1.4984833050
 C         -5.1076825737       -0.7440573190        1.4610887370
 C         -6.1146608658        0.1959084137        1.2987772641
 C         -5.7763456211        1.5355731050        1.2926589238
 C         -4.4503112152        1.9346644233        1.4305005863
 C         -3.4291155006        1.0141180995        1.5827710507
 C         -3.7629870182       -0.3332842061        1.6058013479
 C         -0.8502916613       -2.3285819193        0.8985555996
 C          0.5163482410       -2.2073989096        0.7641047486
 C          0.7386908763        1.0396290278       -0.3560463738
 N         -2.5349762028        2.4827506127       -1.1512645530
 C         -6.1127337793        2.6669065048       -1.9063807345
 C         -7.1263848518        3.5949314910       -2.0059575820
 H         -7.6619160166        5.6683054363       -1.8854382460
 H         -5.3686655446        6.4101004511       -1.3598619287
 H         -3.5433823506        4.7509342095       -1.1813483136
 H         -1.3231138541       -2.0541151473       -2.0433645728
 H         -1.8430362270       -4.4653108393       -2.2943494038
 H         -4.1759216406       -5.2433002752       -2.1103897053
 H         -5.9890737107       -3.6201687427       -1.7162236387
 H         -5.4567404759       -1.2133846055       -1.4660111106
 H         -0.7953509230        4.0604810297       -0.3010814582
 H          1.3928815840        4.6929163839        0.6597802158
 H          3.1125698592        2.9805469205        1.0633054029
 H          4.5826953216        1.5445391383       -0.2190177872
 H          5.2799539501        0.5792240472       -2.3221809068
 H          6.5350273218        1.4171804370       -4.2681856403
 H          8.9703484825        1.6646713097       -4.1932264227
 H         10.2392554817        1.0517650780       -2.1608979626
 H         11.0127678202        0.2182456272        0.3411161801
 H         11.0907167069       -0.6216117480        2.6657505295
 H          9.0315581906       -1.2171643703        3.8493593382
 H          6.8323526416       -1.0236149336        2.7541377865
 H          5.6571225666       -2.3817323460        1.0771173251
 H          3.3012637656       -2.8214646591        1.6632306570
 H          1.0391824402        0.4233127963        2.8129919724
 H         -1.3766319187        0.1347393935        3.1540633258
 H         -2.4066364175       -4.2305195043        1.9737766340
 H         -4.2006573870       -5.8994644837        1.8054993600
 H         -6.5307904864       -5.2268433132        1.4623245359
 H         -7.1399010031       -2.8330759909        1.3073118709
 H         -7.1401123668       -0.1182484607        1.1753989184
 H         -6.5418173707        2.2855501276        1.1628905792
 H         -4.2097953771        2.9868342579        1.4110915286
 H         -2.4050098196        1.3476171095        1.6440865500
 H         -1.3841950415       -3.0728667191        0.3301735883
 H          1.0515977910       -2.8755153472        0.1046984621
 H          0.5488017085        0.0355413913       -0.6999401099
 H         -6.2999372940        1.6146150722       -2.0557216234
 H         -8.1311535846        3.2719409280       -2.2388587885
  99
  -154.944967763800       0.104411531091066      !
 C         -7.1877247513        4.3002649837       -1.3108893465
 C         -5.9085890296        4.8252097170       -1.1791989312
 C         -4.8081617488        3.9978532787       -1.2288064690
 C         -4.9713830574        2.6196962296       -1.4117388492
 C         -3.8329340637        1.7361019221       -1.4111377927
 N         -4.0440327108        0.4089155651       -1.6240486771
 C         -2.9709568994       -0.3784876324       -1.6238953359
 C         -3.1730775112       -1.8008421173       -1.8940641199
 C         -2.0949233752       -2.6105462929       -2.2530019026
 C         -2.2866140879       -3.9600432679       -2.4744077213
 C         -3.5502054314       -4.5161910205       -2.3392721449
 C         -4.6268340535       -3.7128358969       -1.9961245111
 C         -4.4442656406       -2.3615120681       -1.7795733211
 N         -1.7525578921        0.0443322175       -1.3708747362
 C         -1.5838050878        1.3741555114       -1.1030546793
 C         -0.3111729266        1.8364966906       -0.6515086295
 C         -0.1073453772        3.1698041175       -0.2492916767
 C          1.0981133122        3.5467068739        0.2963959373
 C          2.1148918173        2.6203209135        0.4967306585
 C          1.9333011132        1.2911146889        0.1051899162
 C          2.9631187706        0.2721867897        0.3774239400
 C          4.3002844121        0.5235613229        0.1056315617
 C          5.2687651935       -0.4486427691        0.3305870252
 N          6.6166218479       -0.1706005921        0.0665943131
 C          7.1175497065        0.3881013689       -1.0920250875
 C          6.4589578939        0.7323687531       -2.2644551362
 C          7.2129083925        1.2584481216       -3.2961866472
 C          8.5898472493        1.4318284793       -3.1764567302
 C          9.2545755021        1.0668266886       -2.0216577846
 C          8.5187724310        0.5368340120       -0.9710967951
 C          8.8701142866        0.0462590785        0.3331610366
 C         10.0683662844       -0.0494664404        1.0265995057
 C         10.0511621344       -0.5604418633        2.3101240629
 C          8.8571104552       -0.9578433042        2.9071466487
 C          7.6515796583       -0.8715197258        2.2370888987
 C          7.6657615127       -0.3825436867        0.9380797778
 C          4.8944183961       -1.6987807518        0.8166932156
 C          3.5674238392       -1.9503009218        1.1075139918
 C          2.5988726638       -0.9741666554        0.9177823937
 C          1.1907763701       -1.2005718109        1.2859017183
 C          0.5868420963       -0.3836256229        2.2402340633
 C         -0.7747461026       -0.4223427184        2.4392894206
 C         -1.5755636334       -1.2413686499        1.6398838558
 N         -2.9625086224       -1.0988650882        1.6686295708
 C         -3.9073710505       -2.1003305396        1.5388348632
 C         -3.7508619880       -3.4798855436        1.5242642752
 C         -4.8848164911       -4.2603096325        1.3952891522
 C         -6.1525704326       -3.6939708576        1.3045704507
 C         -6.3213177339       -2.3232433207        1.3657934022
 C         -5.1971209527       -1.5219727960        1.4890143805
 C         -5.0155178826       -0.0999910680        1.5963451415
 C         -5.9005433306        0.9670051566        1.6072670607
 C         -5.3915647299        2.2480391938        1.7105867990
 C         -4.0187691924        2.4633314458        1.7672804837
 C         -3.1180914555        1.4140183809        1.7529196612
 C         -3.6231455163        0.1215115314        1.6964893499
 C         -0.9619116050       -2.1508397650        0.7794954631
 C          0.4091791319       -2.1451973619        0.6266721411
 C          0.7473433243        0.9275910683       -0.5094303569
 N         -2.6287397277        2.2043151826       -1.1687169857
 C         -6.2631876842        2.1000913974       -1.5557310800
 C         -7.3574453673        2.9360330149       -1.5021431520
 H         -8.0476913680        4.9523151987       -1.2665746981
 H         -5.7771718201        5.8881934486       -1.0351791294
 H         -3.8084520605        4.3912469024       -1.1253416452
 H         -1.1184790056       -2.1612593526       -2.3557093190
 H         -1.4491890010       -4.5839438808       -2.7524854228
 H         -3.6952716888       -5.5732031931       -2.5075122611
 H         -5.6121428638       -4.1437544131       -1.8978390130
 H         -5.2723874766       -1.7241475252       -1.5113837894
 H         -0.9139783620        3.8764513366       -0.3687754145
 H          1.2513331631        4.5726529353        0.6002850504
 H          3.0328396146        2.9186636652        0.9812868462
 H          4.5931515993        1.4873884141       -0.2834505742
 H          5.3951853176        0.5863905520       -2.3740712657
 H          6.7231510510        1.5386261683       -4.2168242402
 H          9.1431048415        1.8492849373       -4.0042802828
 H         10.3239844351        1.1857909674       -1.9352726801
 H         10.9916220118        0.2743252490        0.5705969436
 H         10.9729150989       -0.6457278580        2.8658508307
 H          8.8728913057       -1.3380179150        3.9178094489
 H          6.7291258693       -1.1635691083        2.7156406139
 H          5.6415647198       -2.4654762211        0.9554279361
 H          3.2760242393       -2.9120876018        1.5045274037
 H          1.1951659978        0.3005858020        2.8132374900
 H         -1.2289325138        0.1925036847        3.2007212052
 H         -2.7810919258       -3.9406022029        1.6280200028
 H         -4.7825359899       -5.3348683812        1.3716843978
 H         -7.0141329046       -4.3365807147        1.2018054171
 H         -7.3049115354       -1.8806874768        1.3213238253
 H         -6.9636134847        0.7981563993        1.5303859705
 H         -6.0619566996        3.0939089199        1.7215028296
 H         -3.6422993980        3.4737678101        1.8117006110
 H         -2.0578011481        1.6123307725        1.7525895382
 H         -1.5640680045       -2.8067748392        0.1727432629
 H          0.8706863031       -2.8184654742       -0.0813004336
 H          0.6022606535       -0.0720323025       -0.8854688300
 H         -6.3772789202        1.0368144880       -1.7007324395
 H         -8.3526620309        2.5286093553       -1.6099211858
