34
 energy: -62.385377042664 gnorm: 0.000047656091 xtb: 6.7.1 (edcfbbe)
Br           5.09894036813511        1.03996291235291        0.00317011339357
C            3.93962581583045       -0.47003080606531        0.00638860485449
C            4.47250964144337       -1.74948567635435        0.01032569687136
C            3.57042463763185       -2.80485410317102        0.01206647379625
C            2.21307635319481       -2.54091695506757        0.00977013059098
C            1.79425187995765       -1.20856229358908        0.00601600647422
C            0.39707843923215       -0.85082189714034        0.00387006500727
N           -0.61741347722847       -1.68860228299044        0.00192490192692
C           -1.72954582388809       -0.91301954074676        0.00058233757174
C           -3.09823888316008       -1.30848135886944       -0.00209729782310
C           -3.52161408524090       -2.64232193514416       -0.00436119998746
C           -4.87070930892297       -2.90878836644875       -0.00722044701884
C           -5.75914679822688       -1.82851633573976       -0.00775485104145
N           -5.38408447394416       -0.57397608842538       -0.00552463223811
C           -4.07998090155448       -0.28807081514734       -0.00268873434478
C           -3.69690195933054        1.11222548449236       -0.00002836203012
N           -4.66941414567452        2.02391652552127        0.00045592419526
C           -4.35541311353243        3.29508264005993        0.00333761559617
C           -3.04092690448441        3.77186561079759        0.00587810059948
C           -2.01576952244961        2.85544753472470        0.00518870398374
C           -2.32706836447665        1.48901155765038        0.00223870076353
C           -1.37140704247587        0.44162478113951        0.00199972746359
N           -0.01125497474921        0.45351420831294        0.00388655046418
N            2.66002996272489       -0.19129142666979        0.00446296485285
H            5.53886213187644       -1.90617222355565        0.01194729012508
H            3.93290247890105       -3.82188278161174        0.01534825965895
H            1.47055719482407       -3.32073838305959        0.01093437751998
H           -2.77813494371302       -3.42512503645770       -0.00389781428243
H           -5.24219155512274       -3.92196215901519       -0.00905207616897
H           -6.82893193438501       -1.99448642897606       -0.00997311442241
H           -5.19093727050776        3.98296677884012        0.00374717250036
H           -2.84203891456741        4.83227969888580        0.00840231744230
H           -0.98333205524905        3.17722217351436        0.00711240461951
H            0.61650800813950        1.24090449175965        0.00495582219071
