34
 energy: -62.373651771547 gnorm: 0.000032736657 xtb: 6.7.1 (edcfbbe)
Br           5.71585560535943        3.04514355693706       -0.00003370066197
C            4.97245088151050        1.29795587571211       -0.00001865836611
C            5.81567716873585        0.19440020221599       -0.00002076048941
C            5.20394910318424       -1.04836540034941       -0.00001473027880
C            3.82170608145645       -1.13201485271879       -0.00001245286965
C            3.07288421917097        0.05065570180361       -0.00001097192970
C            1.62557937378613        0.06680467725748       -0.00001321706568
N            0.89101031011720        1.15410652892347       -0.00000662197211
C           -0.39717031948510        0.74034635640907        0.00000234048226
C           -1.59003855396281        1.51949527976528        0.00000783593347
C           -1.60141250024104        2.91888295565687        0.00000696548207
C           -2.81365652711456        3.56828571980302        0.00000499806974
C           -3.98005770383718        2.79583998444199        0.00000402778586
N           -3.99052308924690        1.48635893942747        0.00000743058760
C           -2.82685799825847        0.83117186243993        0.00000962216090
C           -2.87006274326610       -0.61986562591114        0.00001236203572
N           -4.06619789228436       -1.20759177482903        0.00001694983701
C           -4.13909224920077       -2.51478339471156        0.00001920913105
C           -3.02214888239699       -3.35582450416636        0.00001839343574
C           -1.77393726539920       -2.77920735169578        0.00001386992963
C           -1.66968378074935       -1.38163176933873        0.00000989418109
C           -0.45135949477258       -0.65753698388298        0.00000124302661
N            0.84918913186729       -1.06833223410679       -0.00000767750098
N            3.66896893504256        1.24169137908038       -0.00001352435544
H            6.88716105494615        0.30881261474052       -0.00002325776856
H            5.80405962329135       -1.94634511368416       -0.00001054394071
H            3.34426512271055       -2.09935835723108       -0.00000394279843
H           -0.65974255468514        3.44645696995181        0.00000546726955
H           -2.87243164911167        4.64571046648965        0.00000381134187
H           -4.95415929427636        3.26829362075485        0.00000425750231
H           -5.13935068899634       -2.92785921606617        0.00002412826089
H           -3.14217276464924       -4.42810238989284        0.00002142172931
H           -0.88208294349947       -3.39192027567121        0.00001314391170
H            1.16938428424970       -2.02167644755971       -0.00001431209859
