34
 energy: -62.302176301421 gnorm: 0.000058140780 xtb: 6.7.1 (edcfbbe)
Br           5.08686821537114        1.05793404952983       -0.01053085812074
C            3.93020521569364       -0.46051340027621       -0.01059404031632
C            4.47515465629218       -1.73357125014363       -0.01590397762349
C            3.57374472617512       -2.79881082415333       -0.01461310759796
C            2.22041801729145       -2.54452371391106       -0.00841256266523
C            1.78451012313031       -1.20956127282920       -0.00384757252558
C            0.40148209252057       -0.85902810699488       -0.00020622319000
N           -0.63072466098905       -1.69155823010651        0.00219770468784
C           -1.73119709334210       -0.91510962492990        0.01288691677024
C           -3.09898579420755       -1.32420001483733        0.00454445275110
C           -3.53093603881367       -2.63383687265183        0.00283898411200
C           -4.90055045398770       -2.92117608431517       -0.00843910553470
C           -5.78273391052403       -1.85243216182496       -0.01508564734219
N           -5.37581146631920       -0.61130198675782       -0.01380085335544
C           -4.07337506385452       -0.26314916506289       -0.00554247561074
C           -3.70140816258353        1.08830971665210        0.00140390893555
N           -4.65455413741894        2.04569442510256       -0.00300753766300
C           -4.36620770506620        3.30887708089993       -0.00643251777943
C           -3.04859030177786        3.78761928785699       -0.01663026480145
C           -2.02288781788954        2.85694353696536        0.00532596226487
C           -2.31062875125487        1.49782997052884        0.01547015464830
C           -1.36919152798871        0.44746174412711        0.01736043126054
N           -0.01140435121823        0.45273773400548        0.00147173202740
N            2.65398498000501       -0.18142136027925       -0.00452069698271
H            5.54181068767089       -1.88465420452083       -0.01992589904949
H            3.94528477491054       -3.81262858553987       -0.01836631343752
H            1.48243940438136       -3.32882727064789       -0.00829092866932
H           -2.79496899554259       -3.42317999383054        0.01164095888504
H           -5.26873074982842       -3.93301031531257       -0.01183328531485
H           -6.85348544474066       -2.00389666981610       -0.02300431206998
H           -5.20398895880253        3.99323650614702        0.00418587613416
H           -2.85466361178689        4.84670490316363       -0.02394696232910
H           -0.99404260287518        3.18868831173435        0.02132671048315
H            0.62250004297826        1.23448972510358        0.00374500033568
