  105
  -146.001183950000       0.570534066576878      !
 C         -7.2580169116       -0.1983883391       -0.4870528886
 C         -6.0435927243        0.0242701035        0.4053684910
 C         -6.1376904107        1.3450177810        1.1626926038
 C         -4.9502813375        1.5783100032        2.0965401742
 C         -3.6132194768        1.7961229710        1.3878332720
 C         -3.5950996835        3.0630305976        0.5354404929
 C         -2.2083522494        3.3716097068       -0.0237428279
 C         -1.2528516603        3.9131988612        1.0430791126
 N          0.0768994873        4.0847992182        0.5293507470
 C          0.6372447619        5.2465447069        0.0680665813
 C          0.0878581653        6.5177166602       -0.0397044281
 C          0.8856255474        7.5295656073       -0.5365689935
 C          2.2037970741        7.2941393133       -0.9229130817
 C          2.7580068341        6.0338870677       -0.8227577279
 C          1.9768557483        4.9988733651       -0.3266008105
 C          2.2125086962        3.6024543259       -0.0956393562
 C          3.3146437844        2.7764870736       -0.2627733919
 C          3.1996167516        1.4319914237        0.0676854509
 N          4.3363575515        0.6282589466       -0.0583736628
 C          4.4597933444       -0.7148918622       -0.0698324794
 N          3.3885104052       -1.4972790597       -0.1484969881
 C          3.6433845497       -2.8023512417       -0.1575043423
 N          2.6419091755       -3.7042644237       -0.2537478872
 C          1.2893203573       -3.5318637444       -0.5398609987
 C          0.4642764639       -4.6605955025       -0.4218441183
 C         -0.8853184295       -4.6083839919       -0.7025814816
 C         -1.4254394321       -3.3973614430       -1.1160029501
 C         -0.5947213157       -2.2590305131       -1.2523022543
 C          0.7597721680       -2.3212154257       -0.9617988116
 C         -1.4384527661       -1.2003850845       -1.7269871676
 C         -1.2106741297        0.1267412809       -2.0645035634
 C         -2.2709384384        0.8804864588       -2.5299702183
 C         -3.5462896656        0.3302049684       -2.6477266048
 C         -3.7998018638       -0.9850323591       -2.3087365138
 C         -2.7378932124       -1.7541876700       -1.8499125879
 N         -2.7112072532       -3.0735878327       -1.4778790903
 C         -3.8689718864       -3.9074900480       -1.3228411448
 C         -4.6715959837       -3.5850514824       -0.0519202162
 C         -3.8205442491       -3.6804187094        1.2201436724
 C         -3.1430585359       -2.3541193405        1.5795935626
 C         -1.8756424377       -2.5511557061        2.4078330801
 C         -1.0801011063       -1.2518977277        2.5058062156
 C          0.1565934374       -1.3621791818        3.3964640132
 C          1.1873197216       -2.3485021486        2.8594951103
 N          4.8611172572       -3.3473894906       -0.0510184985
 C          5.8567821249       -2.4745770886        0.0015566814
 O          7.0703354624       -3.0035799961        0.0857667453
 C          8.1530572207       -2.0912341248        0.1407695125
 N          5.7256739047       -1.1564404670       -0.0246262810
 C          1.9920718161        0.9216349946        0.5595105080
 C          0.8903793291        1.7316242052        0.7371084560
 C          1.0026006797        3.0778779546        0.4182731760
 H         -7.1896999129       -1.1539671990       -1.0031821042
 H         -7.3322534542        0.5888388930       -1.2341266730
 H         -8.1739261586       -0.1956995991        0.1001391765
 H         -5.9720623766       -0.7903772999        1.1266036386
 H         -5.1461646526        0.0222265391       -0.2091614690
 H         -6.2118103477        2.1658293206        0.4517644208
 H         -7.0522640475        1.3448500537        1.7604289767
 H         -5.1621685210        2.4520458806        2.7173342822
 H         -4.8566625475        0.7177802247        2.7621563986
 H         -3.3815014826        0.9398511282        0.7578480078
 H         -2.8424147460        1.8647493851        2.1549427489
 H         -4.2786936604        2.9323996374       -0.3013354280
 H         -3.9462451080        3.9088059295        1.1299293857
 H         -1.7845671365        2.4637793474       -0.4487262677
 H         -2.2917204984        4.1134668573       -0.8202939434
 H         -1.6119061327        4.8756242754        1.4122577639
 H         -1.2037667684        3.2178373722        1.8827278148
 H         -0.9335805829        6.7167253147        0.2492058979
 H          0.4785415150        8.5256297542       -0.6302689118
 H          2.7942325523        8.1121691142       -1.3071307709
 H          3.7783698977        5.8522204396       -1.1251551720
 H          4.2470665108        3.1723921204       -0.6373271136
 H          5.2213883214        1.1117756968       -0.1220647980
 H          2.9661968837       -4.6561973199       -0.1620306181
 H          0.9042812332       -5.5955608255       -0.1053376108
 H         -1.4875141114       -5.4996161035       -0.6056266615
 H          1.3942154783       -1.4596643053       -1.0633093002
 H         -0.2246724025        0.5545639278       -1.9658617609
 H         -2.1152077346        1.9093767284       -2.8176116801
 H         -4.3543018322        0.9467574951       -3.0143318920
 H         -4.7917071586       -1.3964809112       -2.4109330882
 H         -3.5362632380       -4.9456841834       -1.2881731204
 H         -4.5148879817       -3.7853675054       -2.1987093350
 H         -5.5021846684       -4.2919487206       -0.0023039066
 H         -5.0836704514       -2.5820541292       -0.1332924616
 H         -3.0555607064       -4.4412482597        1.0753581840
 H         -4.4469968542       -4.0035055537        2.0541864872
 H         -3.8440900386       -1.7199582442        2.1241043767
 H         -2.8691899745       -1.8255425999        0.6706061468
 H         -2.1316366663       -2.9080512119        3.4078290308
 H         -1.2567885075       -3.3042945705        1.9243563532
 H         -1.7292404254       -0.4674401197        2.9010072863
 H         -0.7667543881       -0.9642507430        1.5025927001
 H          0.6202244160       -0.3758968281        3.4701132354
 H         -0.1447695151       -1.6619120264        4.4029314138
 H          0.8068394569       -3.3654098041        2.8948667472
 H          1.4358246799       -2.1102513747        1.8310079248
 H          2.0963665763       -2.3066535405        3.4560225411
 H          9.0493579516       -2.7026938129        0.2155506186
 H          8.0623234191       -1.4369783319        1.0104698749
 H          8.1845952448       -1.4751639339       -0.7602715813
 H          1.9405661525       -0.1228111007        0.8046411101
 H         -0.0282093924        1.3176177934        1.1187679880
  105
  -146.000694790000       0.340000229429382      !
 C          1.3016200809       -0.4764768024        3.2810790129
 C          0.0937310220        0.1893420104        2.6360796748
 C         -0.9335029855        0.6354619474        3.6725274320
 C         -2.2271691333        1.1500150100        3.0401302010
 C         -2.0810077510        2.4501710399        2.2486859934
 C         -1.7613966760        3.6514698119        3.1385892769
 C         -1.8632398331        4.9882048057        2.3951116382
 C         -0.5330675245        5.4667983838        1.7966667587
 N          0.0694936236        4.5135190234        0.9088691163
 C         -0.3899167265        4.2014087895       -0.3452115864
 C         -1.4675090569        4.7212147261       -1.0517922008
 C         -1.7209022357        4.2152365402       -2.3119726596
 C         -0.9231800864        3.2173538582       -2.8710147596
 C          0.1582110155        2.7043087180       -2.1824304662
 C          0.4291407348        3.1932920178       -0.9112509253
 C          1.4281631644        2.8885072611        0.0716947698
 C          2.4829583138        1.9883205550        0.0965985163
 C          3.2605357643        1.9090671519        1.2412783046
 N          4.3076332234        0.9841264110        1.3404249149
 C          4.2989282199       -0.2894401410        0.8849252413
 N          3.2407296566       -0.7402018574        0.2246405616
 C          3.2966876595       -2.0176105832       -0.1413340025
 N          2.2620562996       -2.6043560633       -0.7777994774
 C          1.0222419332       -2.0955254410       -1.1700822787
 C          0.5794528898       -0.8319771812       -0.7595725869
 C         -0.6400981766       -0.3305354278       -1.1609112247
 C         -1.4387645223       -1.1125065332       -1.9835325256
 C         -1.0128871501       -2.4004550663       -2.3862468139
 C          0.2203759228       -2.8908749900       -1.9794893863
 C         -2.0697236588       -2.9340631733       -3.1955932239
 C         -2.2461235759       -4.1367124753       -3.8662072590
 C         -3.4147866818       -4.3392985697       -4.5723391505
 C         -4.4015920004       -3.3562983157       -4.6166271500
 C         -4.2507002068       -2.1519390167       -3.9580652426
 C         -3.0796614697       -1.9380803215       -3.2401700683
 N         -2.6783598341       -0.8489966592       -2.5120490558
 C         -3.4397873888        0.3423766402       -2.2554084573
 C         -4.0286719222        0.3670315260       -0.8371069586
 C         -4.9321289989       -0.8397741090       -0.5404017549
 C         -4.5658417607       -1.5436290890        0.7689752658
 C         -3.2373407832       -2.2883830120        0.6600238822
 C         -2.7947521045       -2.9143901288        1.9780891531
 C         -1.4315836436       -3.5877182055        1.8347078222
 C         -0.9387916738       -4.1595103293        3.1576026242
 N          4.3459672746       -2.8231156327        0.0750869052
 C          5.3538329069       -2.2626347346        0.7255771014
 O          6.3983916463       -3.0523741470        0.9387425696
 C          7.4909353601       -2.4788777874        1.6347691272
 N          5.3876895995       -1.0133424380        1.1730831617
 C          3.0211211031        2.7712693194        2.3193999468
 C          1.9839744089        3.6820686699        2.3024157429
 C          1.1653984591        3.7299421338        1.1805431947
 H          1.0038041450       -1.3597993332        3.8429221512
 H          1.8004597395        0.2101972716        3.9623667589
 H          2.0105155959       -0.7781134626        2.5159137546
 H          0.4376378787        1.0476189707        2.0624656923
 H         -0.3751493874       -0.5147368773        1.9491525516
 H         -1.1821440377       -0.2173913256        4.3091839640
 H         -0.4993055515        1.4029858206        4.3128652797
 H         -2.6070719425        0.3782170552        2.3705183386
 H         -2.9702030286        1.3010730138        3.8280292131
 H         -3.0267528548        2.6405207176        1.7347313218
 H         -1.3111314023        2.3290552045        1.4907395518
 H         -2.4692124098        3.6569203728        3.9706120933
 H         -0.7613042510        3.5433880991        3.5538104462
 H         -2.6025968708        4.8961235260        1.6002906584
 H         -2.2043024602        5.7677314386        3.0792034692
 H         -0.7041922947        6.4025103128        1.2516423563
 H          0.1735265930        5.6694678482        2.6025551700
 H         -2.0895209915        5.5013106381       -0.6406168906
 H         -2.5547203068        4.6027016904       -2.8792744326
 H         -1.1530819886        2.8505413446       -3.8607798908
 H          0.7761978530        1.9328980178       -2.6144258839
 H          2.6902665381        1.3541191000       -0.7458402837
 H          5.0615619802        1.1912063174        1.9790378677
 H          2.4534262249       -3.5615947897       -1.0374018563
 H          1.2163564427       -0.2538374230       -0.1174507421
 H         -0.9506116679        0.6493381804       -0.8372703258
 H          0.5513879973       -3.8721529562       -2.2865589547
 H         -1.4806188419       -4.8975986403       -3.8341847126
 H         -3.5715398534       -5.2681791428       -5.0997357997
 H         -5.3055879173       -3.5414895181       -5.1780046206
 H         -5.0305465849       -1.4058917937       -4.0050502327
 H         -4.2437338575        0.3979276396       -2.9902760256
 H         -2.7879885952        1.2122347440       -2.3846092780
 H         -4.5846645914        1.2988421385       -0.7209317798
 H         -3.2066341184        0.3879003951       -0.1258851420
 H         -4.8483844347       -1.5669150855       -1.3456675701
 H         -5.9745354722       -0.5184807716       -0.4934902642
 H         -5.3554215438       -2.2542609709        1.0230431685
 H         -4.5136406016       -0.8095311459        1.5748324396
 H         -3.3251351768       -3.0666772816       -0.0993301840
 H         -2.4576201445       -1.6022181732        0.3351319541
 H         -3.5323736996       -3.6481747768        2.3096715318
 H         -2.7292348896       -2.1400269896        2.7435162427
 H         -1.5003054766       -4.3864953091        1.0942646865
 H         -0.7098058348       -2.8587710222        1.4664949370
 H         -0.8522406976       -3.3711315056        3.9020880509
 H         -1.6313453239       -4.9089155461        3.5350517082
 H          0.0367242113       -4.6240427558        3.0353471447
 H          7.8833489702       -1.6154679198        1.0934350270
 H          8.2424694326       -3.2624283026        1.6993200860
 H          7.1863736423       -2.1584339685        2.6334114416
 H          3.6610965638        2.7123301856        3.1879733169
 H          1.8245121496        4.3283435128        3.1526676524
  105
  -145.999038560000       5.892893639570058E-002 !
 C          1.6687549486        0.0628667072        3.4732598805
 C          0.4082307321        0.5605237524        2.7792170580
 C         -0.6439553638        1.0327668813        3.7783275132
 C         -1.9585913856        1.4361039689        3.1095847919
 C         -1.8694768550        2.6830649300        2.2288326298
 C         -1.5743041943        3.9514491935        3.0294731666
 C         -1.7331293516        5.2309164027        2.2004973901
 C         -0.4316807594        5.7034613631        1.5375393121
 N          0.1738498675        4.7106374064        0.6960546414
 C         -0.3169412611        4.2985654794       -0.5167870779
 C         -1.4318361736        4.7378687940       -1.2201160204
 C         -1.7108552134        4.1380425751       -2.4327269694
 C         -0.9026316700        3.1253518306       -2.9484980338
 C          0.2154907326        2.6919637328       -2.2639337494
 C          0.5133068154        3.2768104612       -1.0401361262
 C          1.5532734288        3.0702153609       -0.0743854012
 C          2.6360421265        2.2049305876       -0.0253937384
 C          3.4556923873        2.2301725323        1.0919460770
 N          4.5333974947        1.3428311771        1.2139709465
 C          4.5305112472        0.0348341004        0.8694392143
 N          3.4444014018       -0.4894932433        0.3171554066
 C          3.5041650556       -1.7930984660        0.0626356537
 N          2.4440027929       -2.4516236963       -0.4507418239
 C          1.1728849586       -1.9971678404       -0.8075315400
 C          0.7466715376       -0.6964635749       -0.5108348464
 C         -0.4965395604       -0.2405527760       -0.8919852588
 C         -1.3318420744       -1.1041306087       -1.5846540299
 C         -0.9320373318       -2.4348178642       -1.8536107906
 C          0.3244348882       -2.8803899385       -1.4647750115
 C         -2.0318196069       -3.0475838782       -2.5414184228
 C         -2.2554217311       -4.3252672635       -3.0351480470
 C         -3.4572083463       -4.5965415426       -3.6579396864
 C         -4.4259472529       -3.6050123765       -3.8019332129
 C         -4.2284088776       -2.3269909223       -3.3165674455
 C         -3.0300619348       -2.0468223035       -2.6707582711
 N         -2.5890406346       -0.8862163882       -2.0933790167
 C         -3.3201931285        0.3414491578       -1.9477602459
 C         -3.9009054973        0.5448778149       -0.5391878061
 C         -4.7987408582       -0.6147539152       -0.0952353127
 C         -4.0139508825       -1.7509886653        0.5747383615
 C         -4.5985968890       -3.1268987039        0.2625689102
 C         -3.6443406637       -4.2495441341        0.6598021198
 C         -4.1353174956       -5.6080523862        0.1687099993
 C         -3.1516620387       -6.7202635668        0.5089643070
 N          4.5822682373       -2.5589383290        0.2813902873
 C          5.6173076588       -1.9259582321        0.8110602903
 O          6.6928653243       -2.6741785746        1.0186254696
 C          7.8164493930       -2.0202321128        1.5816903395
 N          5.6510359538       -0.6418219589        1.1472380749
 C          3.2268839099        3.1593056242        2.1152146296
 C          2.1608347009        4.0353477042        2.0734454737
 C          1.3023867376        3.9798395294        0.9820827761
 H          2.3916497359       -0.2699903241        2.7343745855
 H          1.4435403481       -0.7704554492        4.1363484789
 H          2.1193706394        0.8578375458        4.0639780631
 H          0.6809516850        1.3777860515        2.1150369401
 H         -0.0085333839       -0.2445833430        2.1735732590
 H         -0.8526868207        0.2205079541        4.4791527076
 H         -0.2495019125        1.8678525668        4.3566197692
 H         -2.3022147572        0.6000560579        2.4978679506
 H         -2.7100364385        1.6082839525        3.8845780976
 H         -2.8295805055        2.8077641738        1.7219968747
 H         -1.1089426926        2.5347801753        1.4663547779
 H         -2.2671473362        3.9902348590        3.8730102308
 H         -0.5638273741        3.9047425164        3.4310108761
 H         -2.4888423908        5.0648558050        1.4335351477
 H         -2.0796878434        6.0455759913        2.8394225969
 H         -0.6414676806        6.5978321650        0.9390680173
 H          0.2892351873        5.9751292215        2.3097943972
 H         -2.0628737266        5.5278278307       -0.8430739690
 H         -2.5746704447        4.4607548334       -2.9956584007
 H         -1.1548566212        2.6825545187       -3.9010916265
 H          0.8410546375        1.9081759600       -2.6615830921
 H          2.8336708935        1.5192507147       -0.8292452680
 H          5.3155190937        1.6219728375        1.7880194890
 H          2.6381228902       -3.4269698206       -0.6292905366
 H          1.4176542329       -0.0523716881        0.0244012768
 H         -0.7957833034        0.7672369607       -0.6574416214
 H          0.6404823328       -3.8914354983       -1.6772139659
 H         -1.5031549688       -5.0927028188       -2.9297251844
 H         -3.6529447605       -5.5855521761       -4.0448560571
 H         -5.3537981676       -3.8434072172       -4.3014503036
 H         -4.9958072603       -1.5764639488       -3.4393408312
 H         -4.1337239521        0.3377727311       -2.6747890138
 H         -2.6519733018        1.1772196269       -2.1785596187
 H         -4.4734385165        1.4744453277       -0.5588607399
 H         -3.0883838060        0.6671493267        0.1743096754
 H         -5.3177535228       -1.0081556554       -0.9678812843
 H         -5.5593631387       -0.2419566531        0.5933547883
 H         -3.9890916657       -1.5964794866        1.6557088506
 H         -2.9844245231       -1.7382374502        0.2255900180
 H         -5.5575667011       -3.2538073897        0.7697792356
 H         -4.7736435101       -3.1990500979       -0.8101402122
 H         -3.5231464893       -4.2716727394        1.7446976354
 H         -2.6689226395       -4.0515201206        0.2152301251
 H         -5.1068627998       -5.8309251726        0.6148744157
 H         -4.2649889388       -5.5609890126       -0.9134906114
 H         -2.1857051955       -6.5202556169        0.0511239630
 H         -3.0107494664       -6.7913797031        1.5854069128
 H         -3.5130849461       -7.6794281194        0.1458784545
 H          8.1486853676       -1.2019597874        0.9394069941
 H          8.5899637417       -2.7806130977        1.6613864793
 H          7.5741749548       -1.6167200831        2.5671075205
 H          3.8984748119        3.1809552796        2.9612971566
 H          2.0100736271        4.7346900985        2.8822676869
  105
  -145.998095860000       2.173169889066284E-002 !
 C         -5.7042199909        3.7515313708        6.2236988870
 C         -4.8281567913        3.4401888995        5.0167993856
 C         -3.7798132384        4.5244007742        4.7795511232
 C         -2.8866359323        4.1996018348        3.5852852296
 C         -1.8449097939        5.2881620133        3.3410592816
 C         -0.9152405586        4.9970647597        2.1620983118
 C         -1.6292560037        5.0455166775        0.8129246219
 C         -0.6525053925        4.9926218728       -0.3686822736
 N         -0.0293558915        3.7080561967       -0.5291947038
 C         -0.5812209987        2.6453202314       -1.2037177211
 C         -1.8207775864        2.5316395188       -1.8183209817
 C         -2.1207733450        1.3416268857       -2.4521348070
 C         -1.2163718898        0.2825842039       -2.4812683444
 C          0.0135954500        0.3825409989       -1.8644217482
 C          0.3354128011        1.5675602940       -1.2188065796
 C          1.4896516924        2.0121327626       -0.4938274832
 C          2.6899510598        1.3976398014       -0.1744549724
 C          3.6251189592        2.1092982561        0.5624336534
 N          4.8570079580        1.5580891139        0.9278056209
 C          5.1962658500        0.2563675906        1.0386631400
 N          4.2818862017       -0.6864358847        0.8579028561
 C          4.7164693766       -1.9363999832        0.9838135443
 N          3.8599961852       -2.9656507238        0.8168573787
 C          2.4794266498       -2.9259280236        0.6028042965
 C          1.8731712702       -4.0490609279        0.0220287289
 C          0.5156833864       -4.0968308138       -0.2258485924
 C         -0.2550199864       -2.9945819249        0.1191673029
 C          0.3473617106       -1.8647212697        0.7221650127
 C          1.7100120174       -1.8319959254        0.9710091747
 C         -0.7038356174       -0.9160279015        0.9463908641
 C         -0.7363459726        0.3637696202        1.4805390641
 C         -1.9430330177        1.0311184973        1.5148964036
 C         -3.1072844982        0.4362441913        1.0352756284
 C         -3.1012641470       -0.8398937006        0.5076710611
 C         -1.8899587701       -1.5164756794        0.4626627066
 N         -1.6063671665       -2.7754685503       -0.0086399710
 C         -2.5593783254       -3.6548105625       -0.6245772364
 C         -2.8070448141       -3.2857532610       -2.0907729086
 C         -3.8923450361       -4.1531048401       -2.7190605542
 C         -4.1713003097       -3.7528994078       -4.1654813394
 C         -5.2878140777       -4.5890725308       -4.7850387058
 C         -5.5752274575       -4.1840450558       -6.2283112946
 C         -6.6970171718       -5.0154924767       -6.8457401381
 C         -6.9768206245       -4.6094749482       -8.2875169519
 N          5.9820016203       -2.2811918617        1.2479537228
 C          6.8037213436       -1.2591231960        1.4350553637
 O          8.0576429758       -1.5872056665        1.7259319301
 C          8.9531961187       -0.5104592257        1.9340910106
 N          6.4773942835        0.0234316514        1.3569536343
 C          3.3635678078        3.4346559892        0.9375601031
 C          2.1737983878        4.0595044360        0.6215130847
 C          1.2209054550        3.3416902145       -0.0891434180
 H         -6.2280827930        4.6943965340        6.0817056674
 H         -5.0984447509        3.8297398661        7.1237579091
 H         -6.4425352102        2.9674956642        6.3740227218
 H         -4.3260819227        2.4823154244        5.1688826643
 H         -5.4554023998        3.3456739972        4.1275717147
 H         -4.2814696170        5.4796522068        4.6089889954
 H         -3.1631281795        4.6304914448        5.6746982377
 H         -2.3795832668        3.2512696974        3.7718648309
 H         -3.5126592795        4.0813222940        2.7000068056
 H         -1.2393495304        5.3992164483        4.2435886616
 H         -2.3533269036        6.2398466234        3.1681812209
 H         -0.1219278851        5.7483765913        2.1640086660
 H         -0.4474485698        4.0203924965        2.2936861907
 H         -2.3221675200        4.2090408323        0.7251284962
 H         -2.2013811953        5.9733504165        0.7425178173
 H         -1.1920039079        5.2269124827       -1.2923725691
 H          0.1300308452        5.7436599645       -0.2348722148
 H         -2.5352090319        3.3413054819       -1.8067916116
 H         -3.0792528422        1.2308090007       -2.9389124356
 H         -1.4853863865       -0.6267728735       -2.9975797564
 H          0.7120779520       -0.4398619649       -1.8759917297
 H          2.8894070061        0.3869814355       -0.4805782381
 H          5.5901296900        2.1991879662        1.1973165908
 H          4.3071541795       -3.8715318403        0.8130415832
 H          2.4897383063       -4.8964704054       -0.2421837438
 H          0.0806884507       -4.9738204178       -0.6815619746
 H          2.1655709911       -0.9726896388        1.4280907059
 H          0.1678295451        0.8253664438        1.8466111550
 H         -1.9917235757        2.0309971622        1.9138862058
 H         -4.0363852730        0.9869609056        1.0755546009
 H         -4.0129794826       -1.2852487716        0.1386316897
 H         -3.5004190984       -3.5949134863       -0.0684198256
 H         -2.1892103453       -4.6801287132       -0.5529672066
 H         -1.8745504801       -3.3957420097       -2.6478567524
 H         -3.1045256780       -2.2370645214       -2.1378193682
 H         -4.8120501645       -4.0571933599       -2.1371648974
 H         -3.5887756861       -5.2017983188       -2.6850942811
 H         -3.2602527152       -3.8711058901       -4.7556187178
 H         -4.4512540300       -2.6978248029       -4.1984736374
 H         -5.0078421894       -5.6443080232       -4.7551009532
 H         -6.1967895368       -4.4723964476       -4.1905909074
 H         -4.6676280562       -4.3036321977       -6.8242942193
 H         -5.8519639513       -3.1276540407       -6.2576898151
 H         -6.4215382232       -6.0722159048       -6.8128661001
 H         -7.6050887547       -4.8925074528       -6.2506168013
 H         -7.2646171881       -3.5617109708       -8.3394825125
 H         -6.0903541685       -4.7508109679       -8.9017260777
 H         -7.7829065705       -5.2081814337       -8.7047114649
 H          9.9149095722       -0.9655951144        2.1605807664
 H          8.6199357013        0.1130555903        2.7665468889
 H          9.0249409967        0.1103556760        1.0384079288
 H          4.1144591115        3.9788096707        1.4928728210
 H          2.0039044784        5.0798261292        0.9295251849
  105
  -145.997242100000       8.805068707377331E-003 !
 C         -5.2941119149        3.6272573068        6.3188904371
 C         -4.4745563264        3.3866222234        5.0573622838
 C         -3.4923190664        4.5245972483        4.7898807999
 C         -2.6631641190        4.2722255965        3.5336496698
 C         -1.6723533250        5.4014926092        3.2641201089
 C         -0.7815553694        5.1549602709        2.0457192810
 C         -1.5400518749        5.2242317427        0.7219570452
 C         -0.6009471812        5.1580238742       -0.4896755618
 N          0.0042468838        3.8660252489       -0.6588929015
 C         -0.5796373421        2.7994156623       -1.2995425241
 C         -1.8289907630        2.6983692180       -1.8964319136
 C         -2.1659911783        1.4980412429       -2.4906846185
 C         -1.2878261477        0.4167311578       -2.4995169241
 C         -0.0468719171        0.5055764465       -1.9035235464
 C          0.3113725967        1.7002001060       -1.2954062664
 C          1.4818082629        2.1344172593       -0.5899607632
 C          2.6649036479        1.4960613751       -0.2518666686
 C          3.6190175849        2.2029828707        0.4648716052
 N          4.8327253683        1.6295470822        0.8543957421
 C          5.1404563899        0.3248146902        1.0107720323
 N          4.2103642696       -0.6058888946        0.8450140840
 C          4.6216954461       -1.8586959074        1.0160264286
 N          3.7554558331       -2.8819370485        0.8651333428
 C          2.3783242073       -2.8423251456        0.6330684716
 C          1.7757557045       -3.9880913647        0.0938825139
 C          0.4214418920       -4.0432747479       -0.1669254845
 C         -0.3492760214       -2.9257817629        0.1244824470
 C          0.2483070112       -1.7720933229        0.6854553668
 C          1.6093025496       -1.7307158927        0.9447369446
 C         -0.8055859775       -0.8154980117        0.8599908657
 C         -0.8440749018        0.4849494597        1.3414352452
 C         -2.0504467905        1.1534588986        1.3335915371
 C         -3.2091416512        0.5402116974        0.8639099019
 C         -3.1978541859       -0.7564723087        0.3894886560
 C         -1.9870020447       -1.4349787611        0.3881410993
 N         -1.6988525015       -2.7124130770       -0.0267677966
 C         -2.6391506863       -3.6257853478       -0.6109549292
 C         -2.8233702569       -3.3780808298       -2.1117506979
 C         -3.8322318160       -4.3472162529       -2.7188876170
 C         -4.0593125122       -4.0834619883       -4.2050740473
 C         -5.0651931975       -5.0613940567       -4.8072543538
 C         -5.3135437327       -4.7822418593       -6.2876387137
 C         -6.2270355425       -5.8127800774       -6.9515580816
 C         -7.6581133094       -5.7755896411       -6.4281766086
 N          5.8762069114       -2.2173177617        1.3134012773
 C          6.7136605622       -1.2054490144        1.4828710668
 O          7.9557775555       -1.5469792568        1.8075680140
 C          8.8668834189       -0.4811107134        2.0021272098
 N          6.4121818387        0.0790640522        1.3568804361
 C          3.3967390789        3.5469403693        0.7971673971
 C          2.2241589907        4.1944593198        0.4645809523
 C          1.2490935096        3.4808572536       -0.2197653858
 H         -5.8729310287        4.5438937981        6.2290537319
 H         -4.6421740572        3.7185210802        7.1848444115
 H         -5.9811858039        2.8025362443        6.4922112749
 H         -3.9206098890        2.4505489607        5.1560933192
 H         -5.1462262950        3.2825435236        4.2023210260
 H         -4.0447043110        5.4605187859        4.6797970930
 H         -2.8257092146        4.6332725495        5.6480975274
 H         -2.1147513732        3.3364124502        3.6559406629
 H         -3.3385034864        4.1622473539        2.6841840174
 H         -1.0337890830        5.5197470769        4.1426360840
 H         -2.2188103775        6.3377115526        3.1271447135
 H          0.0016032089        5.9168272091        2.0376558051
 H         -0.2979375557        4.1814554460        2.1380281205
 H         -2.2504010543        4.4006911522        0.6528537521
 H         -2.0979426477        6.1620885103        0.6742358792
 H         -1.1654115611        5.3925196917       -1.3979561903
 H          0.1923407758        5.9021217788       -0.3831350523
 H         -2.5234933993        3.5252797463       -1.8997688966
 H         -3.1333953939        1.3960835866       -2.9612368957
 H         -1.5875309855       -0.5023550453       -2.9810109304
 H          0.6317632469       -0.3333140464       -1.8999428117
 H          2.8367927192        0.4713243417       -0.5268618552
 H          5.5787948819        2.2598474114        1.1138336042
 H          4.1945013229       -3.7912013292        0.9016149725
 H          2.3933782819       -4.8470455699       -0.1268775765
 H         -0.0116996679       -4.9370306856       -0.5905284536
 H          2.0643208472       -0.8536553470        1.3677535794
 H          0.0559904249        0.9607359164        1.6992772426
 H         -2.1025032263        2.1691318955        1.6896484214
 H         -4.1376385524        1.0932019440        0.8679681736
 H         -4.1048407432       -1.2157689801        0.0256580439
 H         -3.6001017870       -3.5128678644       -0.0999354536
 H         -2.2855907658       -4.6462999217       -0.4438173681
 H         -1.8582144714       -3.4860896522       -2.6105146327
 H         -3.1633124900       -2.3515018829       -2.2582254952
 H         -4.7832166038       -4.2562534414       -2.1886398459
 H         -3.4768877928       -5.3715080172       -2.5846868083
 H         -3.1088372834       -4.1668868977       -4.7364555748
 H         -4.4238174999       -3.0625487566       -4.3384215220
 H         -4.6900337127       -6.0807954170       -4.6915330773
 H         -6.0033264102       -4.9867175533       -4.2559285953
 H         -4.3531784050       -4.7783147082       -6.8092069541
 H         -5.7515680202       -3.7879000644       -6.3988938989
 H         -6.2406077636       -5.6212032159       -8.0269815150
 H         -5.8115844312       -6.8115927034       -6.8002850079
 H         -7.6992765245       -6.0635914146       -5.3809031281
 H         -8.0732502889       -4.7749867815       -6.5282135041
 H         -8.2831945387       -6.4638186955       -6.9922587384
 H          8.9608571962        0.1174129353        1.0935925590
 H          9.8175902140       -0.9469276072        2.2518256141
 H          8.5341634564        0.1671116863        2.8156516997
 H          4.1640642065        4.0866177627        1.3340247457
 H          2.0834123496        5.2281339805        0.7409255169
