104
 energy: -167.350862776896 gnorm: 0.000049540700 xtb: 6.7.1 (edcfbbe)
C           12.56195753319639       -5.45784756684436       -0.55802005859166
O           12.80066497644131       -4.25687851227800        0.14643262470565
C           11.89533400335493       -3.25117980436682        0.05554578722803
C           10.72382008508201       -3.29044403089181       -0.69901379903436
C            9.87247507961117       -2.20334339458111       -0.71705863569318
C           10.16235541483459       -1.05173620463009        0.01509729818030
N            9.29453329019972        0.04237040101610       -0.00474615276493
C            9.80915674934816        1.34054333755577        0.02429258863250
C            9.15329440221120        2.35082071675754        0.72840884764708
C            9.65395675589044        3.63734630756179        0.75754640278058
C           10.83289164445159        3.94643066229279        0.08081484242997
O           11.41364966834365        5.17129647474921        0.04218146306432
C           10.79094353380141        6.24541020944299        0.71613102553446
C           11.49458307472319        2.93321082416804       -0.62317670382831
C           10.99332572260992        1.65391509259433       -0.65272513056376
C            7.91505506327354       -0.15957672777076       -0.04716674650423
C            7.32983246805552       -1.23157693110016        0.63355283485878
C            5.96669091774715       -1.42272980322941        0.59332188880905
C            5.13361933153707       -0.55422395353937       -0.11851669241063
C            3.68367573152284       -0.74833520383115       -0.13859599770219
C            3.12374381515916       -2.04216411240363       -0.16003117746225
C            1.76541052702727       -2.21205477334012       -0.15516090171875
C            0.88618126222890       -1.11722026549863       -0.12481454565871
C            1.43534093350289        0.18465480199975       -0.10219801070333
C            2.82457628599137        0.33624465780126       -0.11632081329639
C            0.59817493009155        1.37275854100909       -0.06258393027691
O            1.08652979642777        2.52815362581367       -0.04943695620600
C           -0.83144555214416        1.13966741899298       -0.04529965624958
C           -1.70985896451272        2.23502875958548       -0.01402075588424
C           -3.06806134832832        2.06529053239511        0.01091037666972
C           -3.62696381614039        0.77122920977606        0.01239263550757
C           -5.07730065251829        0.57861354491026        0.03532097888165
C           -5.65195232536977       -0.46308737738869        0.76958985497948
C           -7.01563297012092       -0.65049550484827        0.79291050129362
C           -7.86047927286755        0.19652928280582        0.06820606967052
N           -9.24142831096199        0.00434095251913        0.08225925958700
C          -10.10297395175932        1.10318966942396        0.03836302478905
C           -9.78185470640009        2.28925687794810        0.70842428480298
C          -10.63327974338345        3.36706311449079        0.66236280654880
C          -11.83613317414616        3.30096117083148       -0.05100698311135
O          -12.60047821312399        4.42110509418718       -0.02955337209056
C          -13.83214042707686        4.42198738888654       -0.72167110782601
C          -12.15986861763410        2.12037012988474       -0.71772703254849
C          -11.30182292210190        1.03928029719976       -0.67186085825235
C           -9.76753434066020       -1.28856152617282        0.14096272908512
C           -9.15024219678577       -2.34083192032597       -0.53582848756712
C           -9.66345149388220       -3.62158224613337       -0.47795391756074
C          -10.81669145224785       -3.88223270916713        0.26044854312738
O          -11.40573932037613       -5.09736736581522        0.38744773377615
C          -10.81419228931262       -6.21397070346324       -0.24413043269353
C          -11.44050042760154       -2.82673835950882        0.93620888051744
C          -10.92632704495234       -1.55346144969028        0.87964401649046
C           -7.29297611914643        1.23855455996059       -0.67171110017181
C           -5.92855491930229        1.42485490742903       -0.68110484799274
C           -2.76933641843475       -0.31393821383514       -0.02032639011851
C           -1.38036777809596       -0.16238724235608       -0.05900016927583
C           -0.54331715688862       -1.35024046079598       -0.11084968788964
O           -1.03174608637747       -2.50558936465511       -0.13254711798156
C            5.72714781428193        0.51418999137609       -0.79795712395012
C            7.08966093553250        0.70920867600998       -0.76828986249182
C           11.34013798312964       -1.01500387038255        0.77020758244088
C           12.18980644174202       -2.09504344342206        0.78800568494817
H           12.52393124199991       -5.28535260967395       -1.63750118345780
H           13.40578529254670       -6.10477409557053       -0.32449475429224
H           11.63505708216089       -5.93583892855266       -0.22824818493563
H           10.46862046089660       -4.15931839152388       -1.28366603400440
H            8.97523403924948       -2.24028589566686       -1.31635513262297
H            8.24690976963044        2.12138755618325        1.26834200250552
H            9.12129933458744        4.38866451006438        1.31766984074867
H           10.73401888270438        6.06063967540566        1.79276796560722
H            9.78867317241097        6.43617677892638        0.32196631320175
H           11.42384317839902        7.11152508590086        0.53054611800300
H           12.40128733195873        3.18502747105900       -1.15005088249351
H           11.50599175172755        0.88699649114596       -1.21277167729502
H            7.95279293774110       -1.89799372449759        1.21143625848061
H            5.52978650741085       -2.23756202511388        1.15044480355579
H            3.77282850322046       -2.90403554914835       -0.20805359374264
H            1.32380880299273       -3.19916943824206       -0.17923683594924
H            3.20383032369958        1.34820815437446       -0.07501403270655
H           -1.26778810495407        3.22214005627483       -0.00255397002137
H           -3.71758068524431        2.92682641196572        0.05996829586804
H           -5.01491727434107       -1.11315801441953        1.35038074640844
H           -7.44172923935024       -1.44446889931873        1.38806808038942
H           -8.86477689452802        2.35004977322218        1.27425465744903
H          -10.39622564249782        4.28177731405698        1.18229810812127
H          -14.25949710694512        5.40902887703799       -0.55350032619337
H          -13.68593643112391        4.26745857685214       -1.79462304159193
H          -14.51070116403726        3.65986629192350       -0.32798525939066
H          -13.07288354595646        2.03545829675590       -1.28426057766818
H          -11.55609051999565        0.13564259126548       -1.20487680424159
H           -8.26401354632856       -2.14976102047779       -1.12219920621065
H           -9.16067028416785       -4.40683508691698       -1.01886289770958
H          -10.79472967509122       -6.09320901334416       -1.33111449145578
H           -9.79954669378459       -6.38932714669289        0.12479367785607
H          -11.44524013887506       -7.06251242809968        0.01448810787690
H          -12.32729822453333       -3.04100168554291        1.51140263005204
H          -11.40748121888672       -0.75295973605645        1.42045012578165
H           -7.93093305409751        1.88723800447471       -1.25328948885281
H           -5.50592501839986        2.21824786601674       -1.27884414871206
H           -3.15079480485414       -1.32561159243863       -0.04820739012550
H            5.10685718647963        1.18191556365238       -1.37671478679198
H            7.53082312061854        1.52720259105173       -1.31825691850009
H           11.57242901510173       -0.13683265256868        1.35282778108586
H           13.09472528359280       -2.07784277302106        1.37450870045342
