104
 energy: -167.350878946750 gnorm: 0.000032432777 xtb: 6.7.1 (edcfbbe)
C           12.53572393615803       -5.46979019367641       -0.51820849025431
O           12.79890206951149       -4.24814886800368        0.14058660064910
C           11.89198649047852       -3.24398842964343        0.04855844805854
C           10.69802399617272       -3.30309181518646       -0.66862850267889
C            9.84787361702431       -2.21526137951728       -0.69335462614416
C           10.16006280845227       -1.04364835951677       -0.00317870331218
N            9.29370402842349        0.05141632411332       -0.02984622556096
C            9.81066256439116        1.34886441019614       -0.05199702131538
C            9.17366958515586        2.38054302795100        0.63835293884229
C            9.67623705285216        3.66646344012593        0.61729067003402
C           10.83873401875949        3.95342971420661       -0.09660909615201
O           11.41917989021597        5.17577994848668       -0.18607042985698
C           10.81144727158061        6.27128906404080        0.46680950667371
C           11.48181211487848        2.91876489979249       -0.78649884192689
C           10.97829382470879        1.64015735586744       -0.76654122825004
C            7.91324075864813       -0.14863179215169       -0.03419387919882
C            7.34272016690560       -1.20252534203168        0.68616929513587
C            5.97911599813440       -1.39497307242246        0.67882239570098
C            5.13144406779447       -0.54428837690041       -0.03687762819434
C            3.68160139943064       -0.74055852062074       -0.02758917209713
C            3.12381829249378       -2.03528226074049       -0.02780109192274
C            1.76575083306950       -2.20673726813391       -0.00825020264988
C            0.88554615191190       -1.11260435532229        0.01781941961062
C            1.43307691626868        0.19009797902847        0.02803170379522
C            2.82187824586575        0.34328585062682       -0.00311110057596
C            0.59486014226591        1.37740709313735        0.06948329863618
O            1.08218924219230        2.53328075402661        0.08169837101301
C           -0.83441952569924        1.14295000635892        0.08609322181273
C           -1.71419863826068        2.23741177826245        0.11052345606147
C           -3.07234588963101        2.06643205100632        0.12367612142827
C           -3.63061383475105        0.77190536498239        0.11823249525376
C           -5.08074873517613        0.57762952697861        0.11458682384056
C           -5.66813600559660       -0.47565789131709        0.82205718538898
C           -7.03139942356683       -0.66759986865191        0.81293966039858
C           -7.86322806675666        0.18782452454693        0.08321483948392
N           -9.24356188920105       -0.00931098786555        0.06243943965725
C          -10.10665679402935        1.08825723680773        0.01939737011577
C           -9.80347843567909        2.26173450937519        0.71936718601031
C          -10.65401963148538        3.34012787010740        0.67169998303691
C          -11.83782468344720        3.28746124660938       -0.07389790364091
O          -12.60235214376030        4.40747979784970       -0.05230185978675
C          -13.81532444723619        4.42162037328122       -0.77651753992247
C          -12.14449521471385        2.11886717812111       -0.76918561377595
C          -11.28733905580144        1.03712345164920       -0.72157292455875
C           -9.76565486537017       -1.30489788443213        0.08014155844257
C           -9.12619684219924       -2.33993834530883       -0.60267830391501
C           -9.63584644347605       -3.62326595347790       -0.58737459988860
C          -10.80791246478368       -3.90400239070792        0.11305680148190
O          -11.39654997819220       -5.12320488523147        0.19499680237729
C          -10.78792606240146       -6.22158992358630       -0.45214559404293
C          -11.45306187640037       -2.86610860609683        0.79603193703111
C          -10.94251775481572       -1.59015668965213        0.78176510303111
C           -7.28346675508084        1.24313390050635       -0.62774764605431
C           -5.91971938235583        1.43252267407399       -0.60638832208819
C           -2.77121462136563       -0.31234292330717        0.09851054257547
C           -1.38212787247348       -0.15964681827683        0.07406979975904
C           -0.54374938188341       -1.34705009184514        0.03589999148421
O           -1.03088141279643       -2.50308159158839        0.02569659067931
C            5.70965793932788        0.50805156510544       -0.75328712579066
C            7.07249326302350        0.70280071579737       -0.75827074484592
C           11.35954831575808       -0.98767915390864        0.71579170003168
C           12.20865785660148       -2.06807808085335        0.73910051452962
H           12.46260112053188       -5.33075594336204       -1.60070931342322
H           13.38593580982352       -6.11110059596024       -0.29245665100376
H           11.61948033749293       -5.93510639532915       -0.14352307941291
H           10.42479167992225       -4.18795213840570       -1.22018577479364
H            8.93355494346713       -2.26777079957492       -1.26501850689006
H            8.28050180197262        2.16882833512756        1.20680117767240
H            9.15840106909484        4.43485043737318        1.16810058967685
H           10.77809767187291        6.12118551199923        1.54979190363158
H            9.80073775103337        6.44993902391060        0.08877563777382
H           11.44010475013852        7.13057203176666        0.23975495695883
H           12.37569352539726        3.15319638396787       -1.34250034261347
H           11.47592320988570        0.85646595296292       -1.31687895971407
H            7.97779630342125       -1.85422279656695        1.26762664139800
H            5.55391714481842       -2.19647247913889        1.26374428573771
H            3.77407955511012       -2.89646652097121       -0.07268591771332
H            1.32509827063035       -3.19450768720634       -0.01905082595915
H            3.20099965665570        1.35578794108328        0.02489834899634
H           -1.27327424283989        3.22501028579366        0.12441492725205
H           -3.72247274979286        2.92778025918158        0.16712814914268
H           -5.04213532104110       -1.13258417913914        1.40705815976819
H           -7.46762417593368       -1.47215232214748        1.38617486144687
H           -8.90107986442407        2.31216840834512        1.30931862001166
H          -10.43053039049549        4.24520875391020        1.21402848872490
H          -14.24556320536398        5.40665522960754       -0.60396081568985
H          -13.64115034133561        4.28387875612531       -1.84758468808887
H          -14.50504632245403        3.65453962528066       -0.41299386127235
H          -13.04284747388395        2.04432342407748       -1.36010243405800
H          -11.52760410775554        0.14350423436323       -1.27746640332431
H           -8.22534816241355       -2.13285312515713       -1.16059790275086
H           -9.11558089143380       -4.39448534775773       -1.13190737739982
H          -10.74131867001134       -6.07044183036605       -1.53451903996596
H           -9.78269562388446       -6.40677201457423       -0.06286051183963
H          -11.42423668836840       -7.07735762425274       -0.23327517986199
H          -12.35401992181462       -3.09611474816435        1.34241660621544
H          -11.44127791351906       -0.80362910824042        1.32709276483026
H           -7.91109325389493        1.89926609673423       -1.21221605527260
H           -5.48746713237634        2.23531584004896       -1.18426237788425
H           -3.15063761522620       -1.32466915208173        0.06820571627143
H            5.07650302316295        1.16186469689159       -1.33403989570369
H            7.50149709144775        1.50653638934047       -1.33804414652667
H           11.60943812933162       -0.09395051434415        1.26660435776963
H           13.13053492105354       -2.03548296945228        1.29786846849936
