104
 energy: -167.392096552188 gnorm: 0.000103465705 xtb: 6.7.1 (edcfbbe)
C           12.70361307370018       -5.37963258023037       -0.58346441595519
O           12.87490576039370       -4.21500933893980        0.19450897340372
C           11.95291776352918       -3.21442217567091        0.08492170208816
C           10.83480754770069       -3.24298989591760       -0.74167251865402
C            9.96715551369805       -2.16589617627901       -0.77329489179909
C           10.18586243384204       -1.04598827460527        0.02262250531097
N            9.30302642738809        0.04615164415446       -0.01566597387156
C            9.83164906522708        1.34676917862848        0.01811624973585
C            9.21538692626360        2.34859037922708        0.76148399463872
C            9.73459177810672        3.63028004666850        0.79892302660620
C           10.89770451012666        3.93322316383524        0.09925805715111
O           11.49998952406546        5.15794640824053        0.06898643313243
C           10.91511382769410        6.21588016991455        0.79674254569025
C           11.52421970880202        2.92673384385193       -0.63917362005021
C           10.99836988376770        1.65521851639336       -0.68349289197533
C            7.93221714420446       -0.15812031670577       -0.07256557258049
C            7.34748012424476       -1.27537714635511        0.53390648304807
C            5.98637083505167       -1.47208365655249        0.47992176677114
C            5.14738689033033       -0.55982153134193       -0.16615097475505
C            3.69976796369312       -0.75881918039769       -0.19442206201652
C            3.14262640707125       -2.04070253299493       -0.27140749728613
C            1.77629357009327       -2.21693440690035       -0.27409324380469
C            0.90663926706650       -1.12748903001809       -0.19770539157631
C            1.45141396816669        0.16505181531943       -0.12931659357088
C            2.82939451810708        0.32987188861514       -0.13030131186922
C            0.59428741100553        1.36578553242467       -0.04990423141028
O            1.07128563182638        2.49528665536204       -0.00485899701596
C           -0.85403893096850        1.13008363986038       -0.02874337145067
C           -1.72227118258882        2.22016957567940        0.05385781676864
C           -3.08823138974796        2.04334453253384        0.07870048082460
C           -3.64484359433279        0.76021839959736        0.02743133878258
C           -5.09297912170667        0.56345353447749        0.05072701911016
C           -5.66282460473903       -0.52333622562784        0.71912268024544
C           -7.02671454928384       -0.70530251562036        0.75008478854084
C           -7.88213119865132        0.18490775870111        0.09079763538824
N           -9.25592787159567       -0.00111071950350        0.10948309724288
C          -10.12755297771885        1.09875116542466        0.03579452429871
C           -9.86159382658654        2.27040848015402        0.74680886984972
C          -10.72204884015206        3.34230062897442        0.67199815546430
C          -11.88021417324917        3.27532556475875       -0.10606054804198
O          -12.66305506131408        4.39347886439502       -0.10628137696641
C          -13.84590924401725        4.38976847450981       -0.87555584740367
C          -12.15448426125281        2.10563248688326       -0.80651254167721
C          -11.28216423119683        1.03401347819252       -0.73694995346866
C           -9.80594161830549       -1.29085842768372        0.19703141081451
C           -9.25473985801730       -2.35372874987476       -0.51162052372809
C           -9.79684442768975       -3.62387445223727       -0.42746410314249
C          -10.91753454801650       -3.85367702853419        0.36332467066384
O          -11.53592791579554       -5.06075223032518        0.51843903553934
C          -11.00777273552905       -6.18211470727732       -0.15581721864952
C          -11.47990397473470       -2.78586669134703        1.06653268138983
C          -10.93097718594158       -1.52579361505680        0.98932838038722
C           -7.31415680374794        1.26860119854736       -0.58864452801319
C           -5.95075378012448        1.45622259484229       -0.59712460707091
C           -2.77655737072475       -0.32880730297419       -0.05269336452724
C           -1.39882093640640       -0.16312050621810       -0.08569761625756
C           -0.54200057651494       -1.36257684547713       -0.18724501518482
O           -1.01918267767495       -2.49090968380365       -0.25493834561589
C            5.73580709888096        0.55421820417466       -0.77145614564391
C            7.09759805176521        0.74952175304413       -0.73436376020887
C           11.30905797384323       -1.02118733179840        0.85090325792504
C           12.17975875839639       -2.08715422242459        0.87790603522011
H           12.73235635937053       -5.15318856750997       -1.65371060823634
H           13.54166927240240       -6.02613187728204       -0.32813175769273
H           11.76558283828882       -5.88807746551405       -0.34041327273692
H           10.63074743113767       -4.09250384114501       -1.37358388480424
H            9.10788905615662       -2.19480281233173       -1.42693557714295
H            8.31847832384498        2.12350139927201        1.31948296984484
H            9.22613526616904        4.37866671440677        1.38545629676212
H           10.88864852192821        5.99666932037008        1.86858136352876
H            9.90337188760472        6.43405441314868        0.44142782760493
H           11.55432296933018        7.07943217039359        0.61992346487825
H           12.42488854809291        3.17227055535809       -1.17989865820394
H           11.49006060772054        0.88881827965795       -1.26354248280950
H            7.97391868972286       -1.97866426753511        1.06212713541138
H            5.55842265285783       -2.32469879394616        0.98559217612528
H            3.79033591371444       -2.90068658125715       -0.34838114457340
H            1.34429746661399       -3.20553204288941       -0.33644390911999
H            3.21238524646807        1.33713487823519       -0.05265365385854
H           -1.28940167380403        3.20913903066388        0.10241666535684
H           -3.73605836514828        2.90283418119533        0.16081311814750
H           -5.02674642128189       -1.21236928136541        1.25465188820450
H           -7.44651107167777       -1.53611763492617        1.29735745305081
H           -8.97570724539745        2.33254680805447        1.36091475212586
H          -10.52323126995745        4.25081975362831        1.21882193884620
H          -14.29613606692707        5.36920145134797       -0.72194644882039
H          -13.63000188272981        4.25190662693197       -1.93947699114117
H          -14.53973404886897        3.61386738365596       -0.53792518481330
H          -13.03876046634842        2.01644462271461       -1.41694484038638
H          -11.50205066168574        0.13266968887841       -1.28967622195914
H           -8.39074966261799       -2.18611088482010       -1.13767806359467
H           -9.33925426730369       -4.42147487913250       -0.99062842056414
H          -11.04056261571938       -6.04811116767632       -1.24141374002755
H           -9.98001170507761       -6.38920201252176        0.15763140773240
H          -11.64686528371536       -7.01778986171329        0.12470568016416
H          -12.34821973588107       -2.97512572928272        1.67819346515920
H          -11.37055390204528       -0.71086763325376        1.54467898597161
H           -7.95547499610661        1.95625730824829       -1.11940972133939
H           -5.53718092495045        2.28556657630850       -1.15127369517835
H           -3.16239501984906       -1.33606719064811       -0.11655995857882
H            5.11757011350643        1.25765313217182       -1.30897297080207
H            7.53298546615832        1.60609550567802       -1.22721488988885
H           11.49340221558228       -0.15829794777410        1.47302118221118
H           13.04921230294710       -2.07583584039254        1.51651265311593
