45
 energy: -72.418530471357 gnorm: 0.000044098093 xtb: 6.7.1 (edcfbbe)
O            1.71466553349168        3.82864854259740       -0.10422258279537
C            1.74631954183951        2.56817171431598       -0.08491754516993
C            1.88180846905540        1.81324737169046        1.14304048950954
C            2.20063565159434        2.52004603836210        2.31915130152505
C            2.48394108144626        1.83578677067628        3.47716207626670
C            2.41841899193065        0.44733748527249        3.50600980597136
C            2.05169959139670       -0.25094922015408        2.36620097209081
C            1.75595618530719        0.41491422474839        1.18546206438566
C            1.17134287056349       -0.34123980699832        0.00577944127810
C            1.66573237633006       -1.77182367000588        0.02073724331823
C            3.03582526673313       -1.99637138002835       -0.13097413497981
C            3.54541963727440       -3.27943058523609       -0.10903103998260
C            2.69583711552127       -4.36157367160299        0.07041889722756
C            1.33660684630257       -4.14739253507827        0.23272790196245
C            0.82315077137646       -2.86179537252187        0.21025520050852
C           -0.35670733552716       -0.25693760128532        0.04499562317055
C           -1.03861192244481        0.14481132570202        1.18733764994523
C           -2.42013901489890        0.23170169700716        1.20016523601843
C           -3.12829573156197       -0.09011423495864        0.05738773586846
Br          -5.04018935633397        0.03699963738776        0.06222577604502
C           -2.47563394449628       -0.50365544334621       -1.09128670388798
C           -1.09617240697899       -0.58299676863625       -1.08898418928070
C            1.61664681858531        0.36948918855316       -1.26459925032572
C            1.79260331445959       -0.33964935689876       -2.44360274890969
C            1.99970986377603        0.31851344818388       -3.64600624795096
C            2.02211423573413        1.70776231277715       -3.68095391485050
C            1.86980474009325        2.43342363517063       -2.52413112470561
C            1.71908594597247        1.76876110155787       -1.29089823310928
H            2.25900720947810        3.59657557776207        2.26582275299544
H            2.77330597120044        2.38762606224302        4.35964777290966
H            2.63083474751775       -0.09193451725246        4.41629074808886
H            1.94810805451489       -1.32504489850097        2.40543646963251
H            3.69652922199992       -1.15255803441953       -0.26881851099657
H            4.60661061610792       -3.43794767824284       -0.23062271212024
H            3.09276239538775       -5.36564093626491        0.08758403084739
H            0.67058480874479       -4.98458671710791        0.38082108069433
H           -0.23659908985122       -2.70857817223623        0.34629136468636
H           -0.49654952118784        0.39144309640945        2.08672166142149
H           -2.93641687541644        0.54765649532897        2.09366659264504
H           -3.03659101895824       -0.75751950370949       -1.97746293570283
H           -0.59147415071052       -0.90113876878253       -1.98769488732822
H            1.73835927109317       -1.41839304433716       -2.42694034669352
H            2.12235506274177       -0.25393441764002       -4.55262311231866
H            2.18131702695537        2.22822281048653       -4.61418761817722
H            1.90884299321134        3.51219885416790       -2.51841209641913
