45
 energy: -72.418530527350 gnorm: 0.000039975696 xtb: 6.7.1 (edcfbbe)
O            1.72680231543760        3.82907489006086        0.18617973429572
C            1.76228572402784        2.56927715600424        0.14424264407703
C            1.72724856881980        1.74779694236377        1.33505524731748
C            1.86660645485675        2.38949381508903        2.58166255512856
C            2.01191885755728        1.64246762793191        3.72578822730889
C            1.99241383524794        0.25402016272553        3.66460716571753
C            1.79515282249929       -0.38186044937281        2.44862482083015
C            1.62724975465156        0.34903529594805        1.28173856987046
C            1.19049610829194       -0.33717669418265       -0.00475357460293
C            1.68000700859567       -1.76906724447457       -0.03986830988508
C            3.04893646018176       -2.00082422560794        0.11188012932841
C            3.55345952619805       -3.28558109995403        0.07611630732411
C            2.69992467512945       -4.36215229448413       -0.11741862033255
C            1.34185115516077       -4.14067981968937       -0.27963409906338
C            0.83343210381851       -2.85339280862472       -0.24308015202585
C           -0.33700117705177       -0.24777113454033       -0.05858717677381
C           -1.08883699531305       -0.56166094622993        1.07049700774819
C           -2.46808474581650       -0.47824977995233        1.05802505869366
C           -3.10787578543573       -0.07330788760838       -0.10077312628245
Br          -5.01923945935850        0.06145318088516       -0.12551912541450
C           -2.38722754824442        0.23527827989863       -1.23945387686802
C           -1.00617944360090        0.14473380303266       -1.21167487368081
C            1.78789779372570        0.43949667726561       -1.16460488926781
C            2.09849775819570       -0.20495161786896       -2.35340742013246
C            2.47831998103107        0.51398686770160       -3.47601577989314
C            2.54121017825149        1.90178756921229       -3.42174710900184
C            2.24258487585514        2.56498698679628       -2.25534873964175
C            1.91120214598912        1.83697319852260       -1.09589559213046
H            1.90316586908571        3.46825358184424        2.59636284735600
H            2.16334998799808        2.14556187784967        4.66979521663025
H            2.10889056237060       -0.33507726058711        4.56132185319194
H            1.74034957817873       -1.46005475409450        2.41145916313525
H            3.71270873008624       -1.16131454795270        0.26078055835156
H            4.61372702204048       -3.44975944653668        0.19823131026297
H            3.09281007775480       -5.36758278408349       -0.14492429122997
H            0.67272378736665       -4.97347680037111       -0.43811887050124
H           -0.22558840933005       -2.69442982168766       -0.37813054928861
H           -0.59444091439125       -0.87341661190297        1.97718199623183
H           -3.03822651437466       -0.72245293994766        1.94099077934311
H           -2.89370179314973        0.54410928377016       -2.14102203878438
H           -0.45390564617998        0.38211091245301       -2.10736041708211
H            1.99676828226279       -1.27832577859783       -2.41281613844745
H            2.70293096914185       -0.00866059119688       -4.39306573200004
H            2.84093941563042        2.46967948011129       -4.29049323223611
H            2.29871366905663        3.64047465875796       -2.18220779014382
