  52
  -75.3239078900000       0.355385099995616      !
 C         -5.6571493534        1.6332459127       -0.3084404234
 C         -4.9568639974        2.6010856744        0.4115928639
 C         -3.5899889962        2.5563708186        0.5020135031
 C         -2.8421929901        1.5053663548       -0.0980613219
 C         -1.4324428774        1.4397873774        0.0642643537
 C         -0.6715039343        2.6563109444        0.1339538194
 C          0.6737428482        2.6564062639        0.0296892981
 C          1.4322364624        1.4359977311        0.0151439792
 C          2.8523447335        1.5004223917        0.1127384469
 C          3.6271649098        0.5403795573        0.8136639033
 C          4.9976776411        0.6125659044        0.8395529536
 C          5.6704986271        1.6378507166        0.1805344010
 C          4.9321092610        2.6126081310       -0.4880919351
 C          3.5615584649        2.5616848632       -0.5093566659
 C          0.6896123225        0.2024186515        0.0087769645
 C          1.4278776071       -1.0692714455       -0.0747299107
 C          1.2484147469       -2.0776889122        0.8715513881
 C          1.9500517547       -3.2630511341        0.7727363208
 C          2.8354974588       -3.4659829212       -0.2746227423
 C          3.0201496175       -2.4711874170       -1.2203655369
 C          2.3267071703       -1.2802575578       -1.1203399092
 C         -0.6866767822        0.2009704359        0.0425587571
 C         -1.4280037681       -1.0670233932        0.1059620311
 C         -1.2235534281       -2.0818159639       -0.8301946179
 C         -1.9361584038       -3.2614788431       -0.7518769491
 C         -2.8589808084       -3.4557520850        0.2648411606
 C         -3.0690663436       -2.4563700534        1.2005043407
 C         -2.3654237845       -1.2703536266        1.1205103646
 C         -3.5798644700        0.5516533144       -0.8523278742
 C         -4.9464173616        0.6193944095       -0.9469129947
 H         -6.7322675190        1.6800049120       -0.3837256771
 H         -5.5000891400        3.3919773365        0.9090421504
 H         -3.0765250309        3.2913847117        1.1028229814
 H         -1.2017763497        3.5946651547        0.1763749671
 H          1.2096615539        3.5926403395        0.0470209592
 H          3.1270530078       -0.2235489736        1.3856800650
 H          5.5594276690       -0.1270121223        1.3921198858
 H          6.7480966155        1.6870397302        0.1999359679
 H          5.4457135885        3.4133924269       -1.0009104386
 H          3.0132685474        3.3028102173       -1.0709875966
 H          0.5689582198       -1.9182662450        1.6960136116
 H          1.8091898718       -4.0326226121        1.5177467156
 H          3.3805789957       -4.3950455417       -0.3509698743
 H          3.7091235762       -2.6235497727       -2.0384278517
 H          2.4668930445       -0.5073591202       -1.8621802575
 H         -0.5194672609       -1.9292016972       -1.6346751016
 H         -1.7748801713       -4.0340263601       -1.4895833185
 H         -3.4127884907       -4.3807363806        0.3245273347
 H         -3.7867643970       -2.6014181192        1.9947535443
 H         -2.5258089059       -0.4953740907        1.8558639568
 H         -3.0475625180       -0.1984867257       -1.4135453208
 H         -5.4761970487       -0.1131746239       -1.5388315382
  52
  -75.3239064500000       0.354843976361962      !
 C         -5.6655652823        1.6310073303       -0.0232653901
 C         -4.9249091261        2.6092090878       -0.6867911112
 C         -3.5551793213        2.5658613517       -0.6973547463
 C         -2.8422468295        1.5068714800       -0.0685667536
 C         -1.4259113595        1.4420760516       -0.1484216199
 C         -0.6603317414        2.6577802993       -0.1731348793
 C          0.6762717207        2.6562068246        0.0111061550
 C          1.4306506938        1.4349804620        0.0783805508
 C          2.8543539223        1.4978681030        0.0600805435
 C          3.6654574374        0.5319165944       -0.5892491027
 C          5.0354016565        0.6083124456       -0.5481228794
 C          5.6720887048        1.6433229207        0.1312719831
 C          4.8990577910        2.6214721206        0.7534574837
 C          3.5290890148        2.5660483793        0.7077812071
 C          0.6876217375        0.2023420089        0.0445999042
 C          1.4166262086       -1.0692977604        0.1906789655
 C          2.2376321698       -1.2687369637        1.3003525889
 C          2.9157060067       -2.4612284950        1.4666704116
 C          2.7928509634       -3.4691855686        0.5250429110
 C          1.9874403122       -3.2768944480       -0.5868892912
 C          1.3018677935       -2.0896248796       -0.7528898947
 C         -0.6833684741        0.2022784020       -0.0815687765
 C         -1.4177411311       -1.0646860994       -0.2108744408
 C         -2.2715894448       -1.2554655606       -1.2990405545
 C         -2.9585470692       -2.4436837030       -1.4546142214
 C         -2.8158699816       -3.4580956388       -0.5223329911
 C         -1.9800448301       -3.2749060334        0.5690173049
 C         -1.2837409818       -2.0928689955        0.7234530919
 C         -3.6228253062        0.5433178761        0.6286324907
 C         -4.9925183699        0.6088934941        0.6423978253
 H         -6.7433540295        1.6759879428       -0.0116080755
 H         -5.4384356431        3.4071144939       -1.2041639339
 H         -3.0087953060        3.3093307529       -1.2571621230
 H         -1.1845403319        3.5975277029       -0.2499612547
 H          1.2135841091        3.5919454288        0.0212651047
 H          3.1962717550       -0.2404159111       -1.1759979108
 H          5.6255879345       -0.1360929782       -1.0631800167
 H          6.7492663278        1.6962318655        0.1633844674
 H          5.3838821577        3.4293318388        1.2829384840
 H          2.9516338683        3.3108581652        1.2340836429
 H          2.3284418593       -0.4858037882        2.0392873364
 H          3.5432359032       -2.6050902751        2.3342008375
 H          3.3238107936       -4.4005133344        0.6547215886
 H          1.8951352574       -4.0569077127       -1.3284598899
 H          0.6850794025       -1.9385211577       -1.6267643137
 H         -2.3776943545       -0.4688598595       -2.0320305146
 H         -3.6090569467       -2.5793239786       -2.3063495772
 H         -3.3545640324       -4.3861164280       -0.6427216345
 H         -1.8729935842       -4.0588387762        1.3045929727
 H         -0.6472817162       -1.9505737427        1.5842894769
 H         -3.1241153172       -0.2143478382        1.2099743660
 H         -5.5556758518       -0.1324222748        1.1911247132
  52
  -75.3223512500000       6.844110347806905E-002 !
 C         -5.5278849601        1.7679945145       -0.2531612831
 C         -4.9132380634        1.8914316972       -1.4877886384
 C         -3.5490964442        1.6986967496       -1.6066373345
 C         -2.7827845118        1.3657576479       -0.4928700374
 C         -1.3277527989        1.1831501984       -0.6220325905
 C         -0.5813163759        2.2840410696       -1.1377036240
 C          0.7715126155        2.3850562214       -0.9053415035
 C          1.4679120764        1.3274404608       -0.3203687893
 C          2.7073825482        1.4803345514        0.3732891208
 C          3.1212766576        0.4984662584        1.3026314926
 C          4.3057846975        0.6235774165        1.9901009235
 C          5.1329588051        1.7184597364        1.7755941267
 C          4.7479148374        2.6953173478        0.8639906482
 C          3.5586166107        2.5885863554        0.1816391546
 C          0.7750592497        0.0236712161       -0.3758310999
 C          1.4319198714       -1.1044806589       -0.8944354262
 C          0.7860935526       -2.3650905333       -1.0716330292
 C          1.4880086460       -3.4808110339       -1.4435604494
 C          2.8550012677       -3.4148907613       -1.7117139690
 C          3.4936807441       -2.1792143530       -1.6462994399
 C          2.8111809048       -1.0519112731       -1.2699847117
 C         -0.6657918335        0.0707392652       -0.1597015596
 C         -1.3503170343       -1.0323323987        0.5090873778
 C         -2.5566900205       -1.5608147638        0.0405904273
 C         -3.1770806971       -2.5932328657        0.7146456112
 C         -2.6144461253       -3.1160708328        1.8691793046
 C         -1.4156199115       -2.6046457144        2.3403626489
 C         -0.7860224370       -1.5782013300        1.6657006246
 C         -3.4081232918        1.2541336323        0.7472819472
 C         -4.7699780488        1.4543696428        0.8638173513
 H         -6.5930169693        1.9196815865       -0.1604694488
 H         -5.4985689087        2.1397231526       -2.3612220859
 H         -3.0709774348        1.7876305524       -2.5720542267
 H         -1.1256036965        3.1324233219       -1.5240767231
 H          1.2553568480        3.3370014162       -1.0637453569
 H          2.4826970145       -0.3522737720        1.4827276198
 H          4.5950705547       -0.1371543444        2.7008024703
 H          6.0654973209        1.8114062481        2.3108594469
 H          5.3900317875        3.5465494105        0.6889491645
 H          3.2913401072        3.3510161678       -0.5335940320
 H         -0.2737688366       -2.4465658234       -0.9058661744
 H          0.9703042368       -4.4240500080       -1.5444104546
 H          3.3994507546       -4.2996942312       -2.0025937162
 H          4.5395102140       -2.1045169596       -1.9083288645
 H          3.3235408204       -0.1046889489       -1.2736950777
 H         -2.9895695654       -1.1739130780       -0.8693268710
 H         -4.1056057240       -2.9962222758        0.3368580323
 H         -3.1053856000       -3.9209271254        2.3953472970
 H         -0.9710532626       -3.0097118776        3.2377022683
 H          0.1458068747       -1.1757441111        2.0359393430
 H         -2.8172319879        1.0172946104        1.6196319875
 H         -5.2433886118        1.3676609022        1.8308795000
  52
  -75.3223435100000       6.788283090926771E-002 !
 C         -5.5150302678        1.7950869684       -0.3278403091
 C         -4.8670993325        1.9749579749       -1.5383477961
 C         -3.5017434872        1.7765076012       -1.6313905421
 C         -2.7670973974        1.3827153201       -0.5160736189
 C         -1.3095048983        1.2013393678       -0.6142558403
 C         -0.5495952525        2.3212269102       -1.0644443273
 C          0.7962135000        2.4127192212       -0.7889314182
 C          1.4769153285        1.3335949699       -0.2267426151
 C          2.6965243644        1.4625491798        0.5069843056
 C          3.0846364609        0.4506478452        1.4144120737
 C          4.2460698522        0.5562334550        2.1436995825
 C          5.0748362764        1.6604653069        1.9935032732
 C          4.7163541880        2.6654170067        1.1018733785
 C          3.5499916742        2.5778724721        0.3782785783
 C          0.7875328630        0.0328846654       -0.3525784069
 C          1.4583779797       -1.0740494035       -0.8979168352
 C          2.8485758148       -1.0100572562       -1.2289552525
 C          3.5387904551       -2.1216321673       -1.6367576998
 C          2.8990456217       -3.3506017805       -1.7782953714
 C          1.5249654892       -3.4239100622       -1.5516770452
 C          0.8153780229       -2.3236956050       -1.1492548834
 C         -0.6596887471        0.0716660588       -0.1769023973
 C         -1.3622876495       -1.0562069044        0.4283625994
 C         -2.5536959046       -1.5658591624       -0.0965641723
 C         -3.1943826997       -2.6219960298        0.5190479426
 C         -2.6679025269       -3.1875202129        1.6706280876
 C         -1.4838830118       -2.6955898450        2.1968451468
 C         -0.8333700586       -1.6458775020        1.5801679738
 C         -3.4260544628        1.2138528542        0.7001426950
 C         -4.7891521036        1.4186434114        0.7910510816
 H         -6.5809541948        1.9521143666       -0.2549464089
 H         -5.4273076004        2.2724490077       -2.4129491032
 H         -2.9979743909        1.9096922538       -2.5785656352
 H         -1.0826900951        3.1852154012       -1.4312275397
 H          1.2821908814        3.3709110350       -0.8943922831
 H          2.4444992032       -0.4081444852        1.5439899509
 H          4.5160859415       -0.2273530665        2.8370432482
 H          5.9888691450        1.7385711830        2.5620725861
 H          5.3603377278        3.5239731244        0.9758442096
 H          3.3034320065        3.3628872537       -0.3199900906
 H          3.3633751269       -0.0659563644       -1.1732543508
 H          4.5921985791       -2.0393747771       -1.8642932254
 H          3.4493990152       -4.2229672462       -2.0947272562
 H          1.0078385902       -4.3595914716       -1.7108083774
 H         -0.2489813950       -2.4088224910       -1.0181577569
 H         -2.9580152736       -1.1446983799       -1.0044973320
 H         -4.1103158532       -3.0101798078        0.0978629046
 H         -3.1750913852       -4.0104542726        2.1515449810
 H         -1.0671446678       -3.1343310571        3.0917665819
 H          0.0869044782       -1.2589481467        1.9930408265
 H         -2.8601414477        0.9299263691        1.5749626950
 H         -5.2883268009        1.2878758349        1.7401180281
  52
  -75.3223429800000       6.784476995521135E-002 !
 C         -5.1266303874        1.7260010657       -1.7890718847
 C         -4.7501747322        2.6925340067       -0.8631531549
 C         -3.5618882315        2.5835528797       -0.1790404878
 C         -2.7049290284        1.4824586848       -0.3827373250
 C         -1.4649728243        1.3281366791        0.3111753899
 C         -0.7684453401        2.3848241915        0.8952108782
 C          0.5842956112        2.2813217247        1.1317753385
 C          1.3301704027        1.1788516871        0.6202174000
 C          2.7851898581        1.3633215458        0.4915686966
 C          3.4111502493        1.2507976245       -0.7481636036
 C          4.7720547007        1.4572614178       -0.8651883294
 C          5.5282569991        1.7784210139        0.2508352768
 C          4.9129760220        1.9023047272        1.4851337036
 C          3.5498340048        1.7029744076        1.6044910426
 C          0.6675835776        0.0666131836        0.1576248913
 C          1.3484042193       -1.0399906528       -0.5077576934
 C          2.5589573067       -1.5641422200       -0.0443067489
 C          3.1743678182       -2.6023787407       -0.7138569995
 C          2.6026633887       -3.1366121740       -1.8587900058
 C          1.3994287427       -2.6303551357       -2.3245666354
 C          0.7751395976       -1.5977029211       -1.6546184416
 C         -0.7746974783        0.0234074962        0.3709542257
 C         -1.4332503004       -1.1003865209        0.8962600678
 C         -0.7857138601       -2.3578793925        1.0905040452
 C         -1.4866540314       -3.4704957982        1.4733378531
 C         -2.8547063466       -3.4042449318        1.7351852712
 C         -3.4961575525       -2.1709358547        1.6504308865
 C         -2.8146285876       -1.0468118147        1.2634541380
 C         -3.1111253725        0.5095624102       -1.3239742822
 C         -4.2935752056        0.6378593304       -2.0146656115
 H         -6.0580558840        1.8209676979       -2.3259181382
 H         -5.3975586841        3.5378688603       -0.6788659132
 H         -3.3000769131        3.3378188096        0.5468825312
 H         -1.2500734196        3.3388512594        1.0481381341
 H          1.1287323098        3.1301980015        1.5168616974
 H          2.8214105236        1.0088324969       -1.6199286224
 H          5.2459394933        1.3704873032       -1.8320460258
 H          6.5925202584        1.9358119573        0.1576705382
 H          5.4970897853        2.1559791490        2.3578626919
 H          3.0712961678        1.7914202138        2.5697515470
 H          2.9990487438       -1.1695292204        0.8587566602
 H          4.1059181301       -3.0015903145       -0.3397890430
 H          3.0894904029       -3.9465485429       -2.3810103286
 H          0.9467904499       -3.0451443311       -3.2134474889
 H         -0.1604235884       -1.2003016804       -2.0205043959
 H          0.2751598733       -2.4386049492        0.9312837886
 H         -0.9672510528       -4.4112178138        1.5892193975
 H         -3.3982455446       -4.2862916377        2.0357804735
 H         -4.5435487177       -2.0952625253        1.9061648988
 H         -3.3297159221       -0.1011572891        1.2523184076
 H         -2.4683534022       -0.3368531797       -1.5100517846
 H         -4.5774430366       -0.1158005898       -2.7350672276
  52
  -75.3223254500000       6.659784004555218E-002 !
 C         -5.1618507564        1.4905433106        1.9116974386
 C         -4.7673321404        2.5674255135        1.1257342572
 C         -3.5719816222        2.5393690757        0.4458530068
 C         -2.7237141079        1.4147807606        0.5132014698
 C         -1.4764160890        1.3427412773       -0.1801891284
 C         -0.7804327348        2.4557179003       -0.6500351732
 C          0.5738981344        2.3806895259       -0.8884511843
 C          1.3230339634        1.2376874379       -0.4804849290
 C          2.7786432257        1.4088949547       -0.3400974280
 C          3.4118886690        1.1874134274        0.8808890155
 C          4.7756005699        1.3713333078        1.0038712594
 C          5.5267984544        1.7788416610       -0.0870404909
 C          4.9037952189        2.0132328443       -1.3012197126
 C          3.5381242825        1.8360588381       -1.4260741758
 C          0.6633848399        0.0850996240       -0.1261789623
 C          1.3413882014       -1.0701967956        0.4538973628
 C          0.7598306718       -1.7125146844        1.5509829861
 C          1.3856542528       -2.7853050289        2.1532413617
 C          2.5975572049       -3.2484168333        1.6657613593
 C          3.1753713803       -2.6321787511        0.5659758972
 C          2.5589359724       -1.5532751929       -0.0348244282
 C         -0.7756154620        0.0552635945       -0.3647868605
 C         -1.4120144548       -1.0072249672       -1.0270558409
 C         -0.7538923493       -2.2371065433       -1.3285472486
 C         -1.4332084349       -3.2962654197       -1.8698920201
 C         -2.7870491129       -3.1956434387       -2.1883221975
 C         -3.4373438416       -1.9809359152       -1.9856902841
 C         -2.7782120660       -0.9112031717       -1.4383349844
 C         -3.1476152404        0.3306331349        1.3150973279
 C         -4.3383428405        0.3758258162        2.0018213571
 H         -6.0990032817        1.5216114025        2.4460516107
 H         -5.4061321377        3.4354785608        1.0481278546
 H         -3.2965402528        3.3815200549       -0.1698514992
 H         -1.2652808045        3.4181681221       -0.7133333612
 H          1.1164395146        3.2646190405       -1.1879454003
 H          2.8264913646        0.8767893797        1.7335947140
 H          5.2558576312        1.1979240054        1.9557944523
 H          6.5933556590        1.9170910986        0.0102622473
 H          5.4836429796        2.3356787423       -2.1538853545
 H          3.0528661333        2.0115697482       -2.3759906973
 H         -0.1811729732       -1.3466416311        1.9355878653
 H          0.9281061382       -3.2639550765        3.0068409722
 H          3.0867062172       -4.0881555252        2.1361717349
 H          4.1134446291       -2.9977634604        0.1743771974
 H          3.0041520782       -1.0928742967       -0.9036269324
 H          0.2972599439       -2.3405695614       -1.1229558913
 H         -0.9071158281       -4.2198994778       -2.0658369953
 H         -3.3128932892       -4.0350281724       -2.6159983447
 H         -4.4734628644       -1.8755903651       -2.2747974470
 H         -3.2975614860        0.0264545552       -1.3338025818
 H         -2.5129940670       -0.5381168856        1.3966522327
 H         -4.6353810121       -0.4634927207        2.6141367364
  52
  -75.3201513500000       6.672874592086741E-003 !
 C         -5.5853144456        1.5921905872       -0.2233372101
 C         -4.8709779112        2.0239510413       -1.3303994434
 C         -3.4940723367        1.9373635456       -1.3464337863
 C         -2.7954619511        1.3994111020       -0.2598384160
 C         -1.3403705192        1.3144646414       -0.3017468992
 C         -0.6132465342        2.4588999321       -0.7795551565
 C          0.7396892590        2.4953354798       -0.7404795626
 C          1.4716702945        1.3830919864       -0.2415518572
 C          2.7790147719        1.5037199324        0.2732504288
 C          3.3491408415        0.4894267468        1.1022055786
 C          4.6510097036        0.5603105335        1.5268883827
 C          5.4613556382        1.6334589497        1.1675413099
 C          4.9205830005        2.6611479457        0.3918507479
 C          3.6188541043        2.6153789554       -0.0290652512
 C          0.7457659372        0.0925160047       -0.1655869719
 C          1.4867469102       -1.0944806818       -0.4817149478
 C          1.1611438197       -2.3939267450       -0.0331084546
 C          1.9551192403       -3.4745608455       -0.3375145598
 C          3.0949986951       -3.3306894749       -1.1214302664
 C          3.4219921310       -2.0704010384       -1.6044587802
 C          2.6481030785       -0.9788615266       -1.2906434722
 C         -0.6504397106        0.1472456300        0.0142219068
 C         -1.4660480103       -1.0440751034        0.3452019833
 C         -2.2457266740       -1.6554769908       -0.6285243277
 C         -3.0508574671       -2.7328644442       -0.3047547914
 C         -3.0946158299       -3.2030755863        0.9962737363
 C         -2.3244771909       -2.5956572656        1.9751104921
 C         -1.5132739128       -1.5237220938        1.6523261335
 C         -3.5290957843        0.9793202377        0.8542995420
 C         -4.9050624050        1.0779743317        0.8699319255
 H         -6.6627856299        1.6603272904       -0.2110948794
 H         -5.3932075719        2.4274472991       -2.1859392835
 H         -2.9471587935        2.2568357924       -2.2219350538
 H         -1.1763558526        3.3256748238       -1.0894721830
 H          1.2529418136        3.4072408085       -1.0014943856
 H          2.7266156023       -0.3229137227        1.4402163630
 H          5.0499201992       -0.2232574563        2.1553544305
 H          6.4870988163        1.6817039545        1.4977501133
 H          5.5404164435        3.5038126257        0.1201474458
 H          3.2418301564        3.4168860427       -0.6439551918
 H          0.3037384911       -2.5463047771        0.5969251060
 H          1.6881045633       -4.4498101574        0.0444966254
 H          3.7106979695       -4.1856337261       -1.3550355231
 H          4.2919093425       -1.9436186979       -2.2327922411
 H          2.9017131669       -0.0188060184       -1.7119591573
 H         -2.2154212324       -1.2826317035       -1.6418753898
 H         -3.6506597891       -3.2032930293       -1.0700076057
 H         -3.7279974135       -4.0402689430        1.2493699942
 H         -2.3578422952       -2.9578072245        2.9925550743
 H         -0.9113502459       -1.0466694606        2.4141950400
 H         -3.0099789072        0.6006706505        1.7204292226
 H         -5.4537963716        0.7538588852        1.7423435637
  52
  -75.3200751400000       6.155867620103747E-003 !
 C         -5.5953163813        1.6273555063       -0.1359839495
 C         -4.8855348942        2.1145971550       -1.2238615023
 C         -3.5100797748        2.0254365666       -1.2549431277
 C         -2.8017882025        1.4278579659       -0.2026474355
 C         -1.3526397362        1.3461352332       -0.2494237743
 C         -0.6214494455        2.4852270187       -0.7348371128
 C          0.7300858461        2.5067398460       -0.7378575596
 C          1.4702189844        1.3921360974       -0.2395492507
 C          2.7915610607        1.5135587528        0.2288085305
 C          3.3797309465        0.5263825831        1.0808352645
 C          4.6923574357        0.6019718074        1.4648781736
 C          5.5011211299        1.6556027142        1.0434904978
 C          4.9452511362        2.6586054573        0.2455963496
 C          3.6325173427        2.6087231279       -0.1364516397
 C          0.7323851133        0.1152165558       -0.1166846137
 C          1.4766277402       -1.0968306784       -0.3681095585
 C          1.2091647781       -2.3400196591        0.2350309347
 C          1.9821115391       -3.4461012080       -0.0399897456
 C          3.0420962870       -3.3718632485       -0.9344084710
 C          3.3203480381       -2.1591935360       -1.5499063573
 C          2.5646712430       -1.0444571765       -1.2691884847
 C         -0.6533588080        0.1667883107        0.0432944902
 C         -1.4644466415       -1.0524397174        0.2821683420
 C         -2.1088373899       -1.6728313892       -0.7791836192
 C         -2.8982289397       -2.7888587885       -0.5634853344
 C         -3.0592353918       -3.2904425103        0.7158024730
 C         -2.4251431157       -2.6736129447        1.7820694495
 C         -1.6309209734       -1.5627123045        1.5668735024
 C         -3.5339744963        0.9514943313        0.8931499625
 C         -4.9083800402        1.0534444581        0.9236703519
 H         -6.6721708164        1.6996237852       -0.1118069167
 H         -5.4128692835        2.5639711351       -2.0530783295
 H         -2.9712878151        2.3858447089       -2.1192695151
 H         -1.1816984454        3.3555605916       -1.0399121118
 H          1.2454464065        3.4058188152       -1.0352631956
 H          2.7605193929       -0.2658184121        1.4685734068
 H          5.1027686397       -0.1585114641        2.1138672262
 H          6.5356118524        1.7079613251        1.3442920806
 H          5.5635014348        3.4851800780       -0.0749008267
 H          3.2453214703        3.3883702020       -0.7724770308
 H          0.4188663322       -2.4274514981        0.9593513543
 H          1.7620359697       -4.3808513574        0.4555303324
 H          3.6415715279       -4.2440984974       -1.1461836153
 H          4.1365505287       -2.0877940770       -2.2542211477
 H          2.7793187219       -0.1185106436       -1.7802265684
 H         -1.9864025084       -1.2780857266       -1.7773122200
 H         -3.3917066865       -3.2656004034       -1.3976709762
 H         -3.6784169517       -4.1588676478        0.8842899974
 H         -2.5494802871       -3.0597942348        2.7835097911
 H         -1.1340963385       -1.0803871481        2.3988004595
 H         -3.0114043240        0.5338115112        1.7382167019
 H         -5.4511970574        0.6880180948        1.7834223320
  52
  -75.3200781700000       6.175637042131452E-003 !
 C         -5.6329124170        1.6189716238       -0.2623133704
 C         -4.8515044267        2.2379464598       -1.2290059158
 C         -3.4779199346        2.1636011220       -1.1673161591
 C         -2.8330900799        1.4485520737       -0.1419644845
 C         -1.3886067992        1.3898338801       -0.1036902192
 C         -0.6487247486        2.5659927136       -0.4771224784
 C          0.7018286321        2.5852466033       -0.4937629675
 C          1.4576169701        1.4335018346       -0.1119748047
 C          2.8205748958        1.5177746807        0.2278647669
 C          3.4652881288        0.5247623814        1.0320419608
 C          4.8106131440        0.5685990140        1.2828987912
 C          5.6014202820        1.5961577479        0.7702149704
 C          4.9947721493        2.6057597336        0.0175997135
 C          3.6504619567        2.5871587539       -0.2323500626
 C          0.7094131459        0.1690349810        0.0087797894
 C          1.4445161100       -1.0611046090       -0.2305950597
 C          1.2370018017       -2.2544923294        0.4775934064
 C          1.9747281575       -3.3839526845        0.1946605461
 C          2.9358625273       -3.3721036927       -0.8065695386
 C          3.1596572799       -2.2012790409       -1.5163124298
 C          2.4374706768       -1.0643546656       -1.2293356059
 C         -0.6715197140        0.2002798708        0.1397714679
 C         -1.4499225298       -1.0574625008        0.2716319327
 C         -1.9492286430       -1.6780691210       -0.8647916054
 C         -2.6964786203       -2.8379565751       -0.7583637313
 C         -2.9574343450       -3.3853981137        0.4851835780
 C         -2.4650220859       -2.7713738143        1.6249718635
 C         -1.7141271690       -1.6153506012        1.5189397908
 C         -3.6411346013        0.8394619866        0.8319396641
 C         -5.0145102165        0.9276220351        0.7702000392
 H         -6.7095175879        1.6805432149       -0.3105447072
 H         -5.3234569756        2.7784438662       -2.0370476562
 H         -2.8849238789        2.6248427455       -1.9434639837
 H         -1.2048187703        3.4652626205       -0.6933445023
 H          1.2141540097        3.5080388519       -0.7133803586
 H          2.8663436995       -0.2421274590        1.4949370435
 H          5.2633340001       -0.1951388905        1.8990832986
 H          6.6613194829        1.6243845287        0.9676760891
 H          5.5998404446        3.4106975353       -0.3750749057
 H          3.2231817313        3.3647062550       -0.8452196444
 H          0.5260071757       -2.2830217357        1.2854218981
 H          1.8050638313       -4.2850530060        0.7663299978
 H          3.5060164376       -4.2620345144       -1.0259729379
 H          3.9042419080       -2.1784645649       -2.2987016856
 H          2.6053504691       -0.1671861799       -1.8058415149
 H         -1.7478818404       -1.2466214585       -1.8346678078
 H         -3.0784784847       -3.3138782062       -1.6495902001
 H         -3.5439242228       -4.2882869106        0.5684360775
 H         -2.6670361742       -3.1948355444        2.5983539695
 H         -1.3298594004       -1.1342215169        2.4094250610
 H         -3.1796333715        0.3320008415        1.6623717377
 H         -5.6136343131        0.4585771663        1.5373464997
