  52
  -74.9997075210000       0.819949955021785      !
 C         -5.6571493534        1.6332459127       -0.3084404234
 C         -4.9568639974        2.6010856744        0.4115928639
 C         -3.5899889962        2.5563708186        0.5020135031
 C         -2.8421929901        1.5053663548       -0.0980613219
 C         -1.4324428774        1.4397873774        0.0642643537
 C         -0.6715039343        2.6563109444        0.1339538194
 C          0.6737428482        2.6564062639        0.0296892981
 C          1.4322364624        1.4359977311        0.0151439792
 C          2.8523447335        1.5004223917        0.1127384469
 C          3.6271649098        0.5403795573        0.8136639033
 C          4.9976776411        0.6125659044        0.8395529536
 C          5.6704986271        1.6378507166        0.1805344010
 C          4.9321092610        2.6126081310       -0.4880919351
 C          3.5615584649        2.5616848632       -0.5093566659
 C          0.6896123225        0.2024186515        0.0087769645
 C          1.4278776071       -1.0692714455       -0.0747299107
 C          1.2484147469       -2.0776889122        0.8715513881
 C          1.9500517547       -3.2630511341        0.7727363208
 C          2.8354974588       -3.4659829212       -0.2746227423
 C          3.0201496175       -2.4711874170       -1.2203655369
 C          2.3267071703       -1.2802575578       -1.1203399092
 C         -0.6866767822        0.2009704359        0.0425587571
 C         -1.4280037681       -1.0670233932        0.1059620311
 C         -1.2235534281       -2.0818159639       -0.8301946179
 C         -1.9361584038       -3.2614788431       -0.7518769491
 C         -2.8589808084       -3.4557520850        0.2648411606
 C         -3.0690663436       -2.4563700534        1.2005043407
 C         -2.3654237845       -1.2703536266        1.1205103646
 C         -3.5798644700        0.5516533144       -0.8523278742
 C         -4.9464173616        0.6193944095       -0.9469129947
 H         -6.7322675190        1.6800049120       -0.3837256771
 H         -5.5000891400        3.3919773365        0.9090421504
 H         -3.0765250309        3.2913847117        1.1028229814
 H         -1.2017763497        3.5946651547        0.1763749671
 H          1.2096615539        3.5926403395        0.0470209592
 H          3.1270530078       -0.2235489736        1.3856800650
 H          5.5594276690       -0.1270121223        1.3921198858
 H          6.7480966155        1.6870397302        0.1999359679
 H          5.4457135885        3.4133924269       -1.0009104386
 H          3.0132685474        3.3028102173       -1.0709875966
 H          0.5689582198       -1.9182662450        1.6960136116
 H          1.8091898718       -4.0326226121        1.5177467156
 H          3.3805789957       -4.3950455417       -0.3509698743
 H          3.7091235762       -2.6235497727       -2.0384278517
 H          2.4668930445       -0.5073591202       -1.8621802575
 H         -0.5194672609       -1.9292016972       -1.6346751016
 H         -1.7748801713       -4.0340263601       -1.4895833185
 H         -3.4127884907       -4.3807363806        0.3245273347
 H         -3.7867643970       -2.6014181192        1.9947535443
 H         -2.5258089059       -0.4953740907        1.8558639568
 H         -3.0475625180       -0.1984867257       -1.4135453208
 H         -5.4761970487       -0.1131746239       -1.5388315382
  52
  -74.9981133109000       0.151753638086509      !
 C         -5.5278849601        1.7679945145       -0.2531612831
 C         -4.9132380634        1.8914316972       -1.4877886384
 C         -3.5490964442        1.6986967496       -1.6066373345
 C         -2.7827845118        1.3657576479       -0.4928700374
 C         -1.3277527989        1.1831501984       -0.6220325905
 C         -0.5813163759        2.2840410696       -1.1377036240
 C          0.7715126155        2.3850562214       -0.9053415035
 C          1.4679120764        1.3274404608       -0.3203687893
 C          2.7073825482        1.4803345514        0.3732891208
 C          3.1212766576        0.4984662584        1.3026314926
 C          4.3057846975        0.6235774165        1.9901009235
 C          5.1329588051        1.7184597364        1.7755941267
 C          4.7479148374        2.6953173478        0.8639906482
 C          3.5586166107        2.5885863554        0.1816391546
 C          0.7750592497        0.0236712161       -0.3758310999
 C          1.4319198714       -1.1044806589       -0.8944354262
 C          0.7860935526       -2.3650905333       -1.0716330292
 C          1.4880086460       -3.4808110339       -1.4435604494
 C          2.8550012677       -3.4148907613       -1.7117139690
 C          3.4936807441       -2.1792143530       -1.6462994399
 C          2.8111809048       -1.0519112731       -1.2699847117
 C         -0.6657918335        0.0707392652       -0.1597015596
 C         -1.3503170343       -1.0323323987        0.5090873778
 C         -2.5566900205       -1.5608147638        0.0405904273
 C         -3.1770806971       -2.5932328657        0.7146456112
 C         -2.6144461253       -3.1160708328        1.8691793046
 C         -1.4156199115       -2.6046457144        2.3403626489
 C         -0.7860224370       -1.5782013300        1.6657006246
 C         -3.4081232918        1.2541336323        0.7472819472
 C         -4.7699780488        1.4543696428        0.8638173513
 H         -6.5930169693        1.9196815865       -0.1604694488
 H         -5.4985689087        2.1397231526       -2.3612220859
 H         -3.0709774348        1.7876305524       -2.5720542267
 H         -1.1256036965        3.1324233219       -1.5240767231
 H          1.2553568480        3.3370014162       -1.0637453569
 H          2.4826970145       -0.3522737720        1.4827276198
 H          4.5950705547       -0.1371543444        2.7008024703
 H          6.0654973209        1.8114062481        2.3108594469
 H          5.3900317875        3.5465494105        0.6889491645
 H          3.2913401072        3.3510161678       -0.5335940320
 H         -0.2737688366       -2.4465658234       -0.9058661744
 H          0.9703042368       -4.4240500080       -1.5444104546
 H          3.3994507546       -4.2996942312       -2.0025937162
 H          4.5395102140       -2.1045169596       -1.9083288645
 H          3.3235408204       -0.1046889489       -1.2736950777
 H         -2.9895695654       -1.1739130780       -0.8693268710
 H         -4.1056057240       -2.9962222758        0.3368580323
 H         -3.1053856000       -3.9209271254        2.3953472970
 H         -0.9710532626       -3.0097118776        3.2377022683
 H          0.1458068747       -1.1757441111        2.0359393430
 H         -2.8172319879        1.0172946104        1.6196319875
 H         -5.2433886118        1.3676609022        1.8308795000
  52
  -74.9965261518000       2.829640689170630E-002 !
 C         -5.6329124170        1.6189716238       -0.2623133704
 C         -4.8515044267        2.2379464598       -1.2290059158
 C         -3.4779199346        2.1636011220       -1.1673161591
 C         -2.8330900799        1.4485520737       -0.1419644845
 C         -1.3886067992        1.3898338801       -0.1036902192
 C         -0.6487247486        2.5659927136       -0.4771224784
 C          0.7018286321        2.5852466033       -0.4937629675
 C          1.4576169701        1.4335018346       -0.1119748047
 C          2.8205748958        1.5177746807        0.2278647669
 C          3.4652881288        0.5247623814        1.0320419608
 C          4.8106131440        0.5685990140        1.2828987912
 C          5.6014202820        1.5961577479        0.7702149704
 C          4.9947721493        2.6057597336        0.0175997135
 C          3.6504619567        2.5871587539       -0.2323500626
 C          0.7094131459        0.1690349810        0.0087797894
 C          1.4445161100       -1.0611046090       -0.2305950597
 C          1.2370018017       -2.2544923294        0.4775934064
 C          1.9747281575       -3.3839526845        0.1946605461
 C          2.9358625273       -3.3721036927       -0.8065695386
 C          3.1596572799       -2.2012790409       -1.5163124298
 C          2.4374706768       -1.0643546656       -1.2293356059
 C         -0.6715197140        0.2002798708        0.1397714679
 C         -1.4499225298       -1.0574625008        0.2716319327
 C         -1.9492286430       -1.6780691210       -0.8647916054
 C         -2.6964786203       -2.8379565751       -0.7583637313
 C         -2.9574343450       -3.3853981137        0.4851835780
 C         -2.4650220859       -2.7713738143        1.6249718635
 C         -1.7141271690       -1.6153506012        1.5189397908
 C         -3.6411346013        0.8394619866        0.8319396641
 C         -5.0145102165        0.9276220351        0.7702000392
 H         -6.7095175879        1.6805432149       -0.3105447072
 H         -5.3234569756        2.7784438662       -2.0370476562
 H         -2.8849238789        2.6248427455       -1.9434639837
 H         -1.2048187703        3.4652626205       -0.6933445023
 H          1.2141540097        3.5080388519       -0.7133803586
 H          2.8663436995       -0.2421274590        1.4949370435
 H          5.2633340001       -0.1951388905        1.8990832986
 H          6.6613194829        1.6243845287        0.9676760891
 H          5.5998404446        3.4106975353       -0.3750749057
 H          3.2231817313        3.3647062550       -0.8452196444
 H          0.5260071757       -2.2830217357        1.2854218981
 H          1.8050638313       -4.2850530060        0.7663299978
 H          3.5060164376       -4.2620345144       -1.0259729379
 H          3.9042419080       -2.1784645649       -2.2987016856
 H          2.6053504691       -0.1671861799       -1.8058415149
 H         -1.7478818404       -1.2466214585       -1.8346678078
 H         -3.0784784847       -3.3138782062       -1.6495902001
 H         -3.5439242228       -4.2882869106        0.5684360775
 H         -2.6670361742       -3.1948355444        2.5983539695
 H         -1.3298594004       -1.1342215169        2.4094250610
 H         -3.1796333715        0.3320008415        1.6623717377
 H         -5.6136343131        0.4585771663        1.5373464997
