  63
       -105.58983756
 N          1.9171498182        3.6129745331       -0.7774961560
 C          1.4469743627        2.6258467323       -0.4277762559
 C          0.8495565472        1.4070551307       -0.0404979712
 C         -0.5233389640        1.2804652326       -0.1171068389
 C         -1.1529822860        0.0551901894        0.1657360693
 C         -2.5622984473       -0.0639528274        0.0891164020
 N         -3.3174717555        1.0095667657       -0.2489755927
 C         -4.6156513396        0.8758022932       -0.3139350135
 C         -5.4310178296        2.0324207840       -0.6670907322
 C         -6.8176329311        1.9114748405       -0.7570994037
 C         -7.5878954566        3.0080067979       -1.0896465515
 C         -6.9868869299        4.2330772811       -1.3346223352
 C         -5.6083071764        4.3591084188       -1.2465501479
 C         -4.8315176260        3.2675831777       -0.9153599486
 N         -5.2410658844       -0.2906915209       -0.0699713215
 C         -4.4619530449       -1.3363213981        0.2634181298
 C         -5.1091574772       -2.6145698432        0.5359780075
 C         -6.4936178609       -2.7379326706        0.4201631489
 C         -7.1047688683       -3.9491151500        0.6770034781
 C         -6.3457002984       -5.0468468971        1.0520369981
 C         -4.9684965086       -4.9297904339        1.1691573298
 C         -4.3501972763       -3.7229159619        0.9129876325
 N         -3.1608328002       -1.2498144066        0.3539928242
 C         -0.3400053985       -1.0540217123        0.5103361806
 C          1.0204891971       -0.9282381153        0.5916458840
 C          1.6447403937        0.2990047967        0.3424180786
 N          3.0370559796        0.4131064582        0.4315409155
 C          3.7560522081        1.4000719615        1.1059007899
 C          3.2903156132        2.4254961904        1.9065282727
 C          4.2264376209        3.2692921390        2.4835380355
 C          5.5906680249        3.0864251358        2.2799076168
 C          6.0658609203        2.0414052056        1.5118970248
 C          5.1476324290        1.1771477803        0.9226038805
 C          5.2590551330        0.0015844619        0.1263945945
 C          6.2145308206       -0.8535805749       -0.4840676111
 C          7.6091037318       -0.7971552765       -0.4868713086
 C          8.3285610179       -1.7585950416       -1.1658038548
 C          7.6836178705       -2.7849128829       -1.8478222939
 C          6.2995676332       -2.8647994105       -1.8623307560
 C          5.5777114431       -1.9041446288       -1.1853334761
 S          3.8126817755       -1.8376117610       -1.0941131402
 C          3.9445769502       -0.4174895047       -0.1274535898
 H         -1.1287821428        2.1224357133       -0.4157130790
 H         -7.2693835364        0.9509233200       -0.5635279394
 H         -8.6614351067        2.9104910894       -1.1596721302
 H         -7.5918170574        5.0893867759       -1.5941674594
 H         -5.1408217663        5.3141152480       -1.4367849097
 H         -3.7583026699        3.3511485250       -0.8416751936
 H         -7.0697106835       -1.8741287308        0.1266487655
 H         -8.1771664900       -4.0412246043        0.5851232573
 H         -6.8262036613       -5.9931804301        1.2524200774
 H         -4.3782093481       -5.7857812125        1.4620125867
 H         -3.2800571296       -3.6156494115        1.0011599903
 H         -0.8212915378       -1.9971079465        0.7122552663
 H          1.6320862863       -1.7748056570        0.8680851645
 H          2.2363181880        2.5674896986        2.0862844215
 H          3.8870701615        4.0835670509        3.1047553712
 H          6.2885334055        3.7689593260        2.7406820791
 H          7.1252565204        1.8923518062        1.3736721165
 H          8.1097601058       -0.0014017703        0.0417727127
 H          9.4072439704       -1.7154035648       -1.1688562637
 H          8.2637403454       -3.5278300804       -2.3732242705
 H          5.7942219526       -3.6573549657       -2.3919761566
