  63
       -105.58983756
 N          1.9171498182        3.6129745331       -0.7774961560
 C          1.4469743627        2.6258467323       -0.4277762559
 C          0.8495565472        1.4070551307       -0.0404979712
 C         -0.5233389640        1.2804652326       -0.1171068389
 C         -1.1529822860        0.0551901894        0.1657360693
 C         -2.5622984473       -0.0639528274        0.0891164020
 N         -3.3174717555        1.0095667657       -0.2489755927
 C         -4.6156513396        0.8758022932       -0.3139350135
 C         -5.4310178296        2.0324207840       -0.6670907322
 C         -6.8176329311        1.9114748405       -0.7570994037
 C         -7.5878954566        3.0080067979       -1.0896465515
 C         -6.9868869299        4.2330772811       -1.3346223352
 C         -5.6083071764        4.3591084188       -1.2465501479
 C         -4.8315176260        3.2675831777       -0.9153599486
 N         -5.2410658844       -0.2906915209       -0.0699713215
 C         -4.4619530449       -1.3363213981        0.2634181298
 C         -5.1091574772       -2.6145698432        0.5359780075
 C         -6.4936178609       -2.7379326706        0.4201631489
 C         -7.1047688683       -3.9491151500        0.6770034781
 C         -6.3457002984       -5.0468468971        1.0520369981
 C         -4.9684965086       -4.9297904339        1.1691573298
 C         -4.3501972763       -3.7229159619        0.9129876325
 N         -3.1608328002       -1.2498144066        0.3539928242
 C         -0.3400053985       -1.0540217123        0.5103361806
 C          1.0204891971       -0.9282381153        0.5916458840
 C          1.6447403937        0.2990047967        0.3424180786
 N          3.0370559796        0.4131064582        0.4315409155
 C          3.7560522081        1.4000719615        1.1059007899
 C          3.2903156132        2.4254961904        1.9065282727
 C          4.2264376209        3.2692921390        2.4835380355
 C          5.5906680249        3.0864251358        2.2799076168
 C          6.0658609203        2.0414052056        1.5118970248
 C          5.1476324290        1.1771477803        0.9226038805
 C          5.2590551330        0.0015844619        0.1263945945
 C          6.2145308206       -0.8535805749       -0.4840676111
 C          7.6091037318       -0.7971552765       -0.4868713086
 C          8.3285610179       -1.7585950416       -1.1658038548
 C          7.6836178705       -2.7849128829       -1.8478222939
 C          6.2995676332       -2.8647994105       -1.8623307560
 C          5.5777114431       -1.9041446288       -1.1853334761
 S          3.8126817755       -1.8376117610       -1.0941131402
 C          3.9445769502       -0.4174895047       -0.1274535898
 H         -1.1287821428        2.1224357133       -0.4157130790
 H         -7.2693835364        0.9509233200       -0.5635279394
 H         -8.6614351067        2.9104910894       -1.1596721302
 H         -7.5918170574        5.0893867759       -1.5941674594
 H         -5.1408217663        5.3141152480       -1.4367849097
 H         -3.7583026699        3.3511485250       -0.8416751936
 H         -7.0697106835       -1.8741287308        0.1266487655
 H         -8.1771664900       -4.0412246043        0.5851232573
 H         -6.8262036613       -5.9931804301        1.2524200774
 H         -4.3782093481       -5.7857812125        1.4620125867
 H         -3.2800571296       -3.6156494115        1.0011599903
 H         -0.8212915378       -1.9971079465        0.7122552663
 H          1.6320862863       -1.7748056570        0.8680851645
 H          2.2363181880        2.5674896986        2.0862844215
 H          3.8870701615        4.0835670509        3.1047553712
 H          6.2885334055        3.7689593260        2.7406820791
 H          7.1252565204        1.8923518062        1.3736721165
 H          8.1097601058       -0.0014017703        0.0417727127
 H          9.4072439704       -1.7154035648       -1.1688562637
 H          8.2637403454       -3.5278300804       -2.3732242705
 H          5.7942219526       -3.6573549657       -2.3919761566
  63
       -105.58972644
 N          2.2426148486        2.8572391861       -1.2861328080
 C          1.6659447276        1.9842272224       -0.8137614053
 C          0.9536213209        0.9349635897       -0.1957334758
 C         -0.4207442410        0.8834922310       -0.3164388617
 C         -1.1660416569       -0.1024028642        0.3542337352
 C         -2.5748667074       -0.1571721795        0.2179722601
 N         -3.2182767984        0.7426820525       -0.5649857266
 C         -4.5168042132        0.6640301492       -0.6864019821
 C         -5.2101345780        1.6247078392       -1.5368112439
 C         -6.5961974623        1.5617668714       -1.6795856115
 C         -7.2508049146        2.4699770475       -2.4876425537
 C         -6.5337336673        3.4477171122       -3.1599566697
 C         -5.1552113847        3.5154375133       -3.0210983143
 C         -4.4936706818        2.6111866331       -2.2153534542
 N         -5.2515692901       -0.2714170040       -0.0562452790
 C         -4.5824691203       -1.1454969551        0.7183272029
 C         -5.3499275100       -2.1716208956        1.4149405980
 C         -6.7347998498       -2.2365186528        1.2613634480
 C         -7.4596025272       -3.2099635697        1.9196807374
 C         -6.8147881102       -4.1261373349        2.7363323923
 C         -5.4377823162       -4.0661030587        2.8930890035
 C         -4.7063576169       -3.0965132776        2.2378943339
 N         -3.2840909331       -1.1130386349        0.8653213033
 C         -0.4719074130       -1.0336350567        1.1675775173
 C          0.8916807718       -0.9860633322        1.2837501560
 C          1.6339956581       -0.0155654997        0.6033219765
 N          3.0324458543        0.0122404006        0.7047430227
 C          3.7689160811        0.0537966539        1.8861146585
 C          3.3167734002        0.1100468151        3.1907557280
 C          4.2657815068        0.1593981527        4.1998637497
 C          5.6282887118        0.1594371806        3.9138323800
 C          6.0873626444        0.1234964393        2.6117181197
 C          5.1563658050        0.0757401519        1.5775162516
 C          5.2446949995        0.0492440877        0.1569582086
 C          6.1853120557        0.0211927407       -0.9069345733
 C          7.5802381806        0.0500473066       -0.8833983653
 C          8.2824228020        0.0147717167       -2.0706888159
 C          7.6186625000       -0.0486585983       -3.2909543507
 C          6.2332302709       -0.0813953079       -3.3428795346
 C          5.5288209310       -0.0477189450       -2.1577135760
 S          3.7661863392       -0.0853698043       -2.0233319621
 C          3.9222905264        0.0157845129       -0.3131759855
 H         -0.9396695978        1.6112311725       -0.9210438343
 H         -7.1391501509        0.7946373079       -1.1496057649
 H         -8.3243631907        2.4181758655       -2.5961024370
 H         -7.0482238258        4.1566486815       -3.7918777966
 H         -4.5972377352        4.2774332290       -3.5452811233
 H         -3.4217501914        2.6513280057       -2.0983045488
 H         -7.2210336514       -1.5164903932        0.6218164164
 H         -8.5321170522       -3.2572999227        1.7980742097
 H         -7.3840649958       -4.8867222290        3.2502029448
 H         -4.9362577653       -4.7810548125        3.5293073271
 H         -3.6347618130       -3.0369875295        2.3493196910
 H         -1.0448636176       -1.7879756390        1.6821542421
 H          1.4174363157       -1.7141081138        1.8844820409
 H          2.2616317580        0.1238720679        3.4165323796
 H          3.9400744588        0.2021748679        5.2279698517
 H          6.3368546238        0.1963576894        4.7274312690
 H          7.1444038061        0.1370866732        2.3971406346
 H          8.0957179317        0.1018815632        0.0627194559
 H          9.3616051666        0.0383385303       -2.0536638685
 H          8.1849586709       -0.0723200895       -4.2092942978
 H          5.7135051094       -0.1306729443       -4.2869084310
  63
       -105.58969885
 N          1.9087122657        3.5908339624       -0.9982138419
 C          1.4414515300        2.6176037353       -0.6082838531
 C          0.8469665700        1.4131222944       -0.1744537116
 C         -0.5266420281        1.2852240759       -0.2376656075
 C         -1.1540545747        0.0665907095        0.0765951912
 C         -2.5646938837       -0.0533314450        0.0296454563
 N         -3.3316680319        1.0284303031       -0.2487293143
 C         -4.6316131218        0.8948816390       -0.2661228770
 C         -5.4620792131        2.0644206456       -0.5301246529
 C         -6.8494434135        1.9378437386       -0.5974887417
 C         -7.6348650471        3.0475092427       -0.8385436686
 C         -7.0483585382        4.2914966693       -1.0131479732
 C         -5.6691489317        4.4231693358       -0.9473958405
 C         -4.8772134885        3.3185759937       -0.7080430463
 N         -5.2466136795       -0.2819570877       -0.0460351516
 C         -4.4549184386       -1.3373497136        0.2187525981
 C         -5.0894463744       -2.6289229159        0.4567842315
 C         -4.3124151874       -3.7601167102        0.7084166924
 C         -4.9182910279       -4.9801314093        0.9295833953
 C         -6.3010123091       -5.0873442857        0.9027263292
 C         -7.0780972370       -3.9666842312        0.6531258514
 C         -6.4793312402       -2.7426132039        0.4307092714
 N         -3.1520197799       -1.2493629475        0.2739857926
 C         -0.3373869643       -1.0375034403        0.4289409216
 C          1.0224799007       -0.9075019077        0.5075675952
 C          1.6449149315        0.3167170593        0.2370212324
 N          3.0344625655        0.4379735841        0.3435477533
 C          3.7391117898        1.4559533150        0.9881243689
 C          3.2573524013        2.5190495794        1.7278042657
 C          4.1812850048        3.3890237232        2.2854478041
 C          5.5495894377        3.1952723910        2.1241168860
 C          6.0403663474        2.1112273656        1.4230860386
 C          5.1343144733        1.2197483848        0.8558529316
 C          5.2630548834        0.0020012816        0.1291908230
 C          6.2326898804       -0.8964112682       -0.3894605494
 C          7.6268243782       -0.8537590271       -0.3361674713
 C          8.3621428917       -1.8663342396       -0.9165904204
 C          7.7337547277       -2.9296051447       -1.5561200744
 C          6.3506355279       -2.9959958108       -1.6262859861
 C          5.6129752445       -1.9852463084       -1.0461938119
 S          3.8467328445       -1.8999557852       -1.0272984169
 C          3.9543325525       -0.4249225368       -0.1424591503
 H         -1.1338927970        2.1198257512       -0.5531344563
 H         -7.2899277675        0.9626971773       -0.4589544830
 H         -8.7090229659        2.9457651745       -0.8905268934
 H         -7.6651842730        5.1582024237       -1.2000631786
 H         -5.2131152846        5.3929645596       -1.0826171034
 H         -3.8032240039        3.4060594634       -0.6519575378
 H         -3.2380845887       -3.6608933632        0.7247032358
 H         -4.3138656839       -5.8541958281        1.1236526460
 H         -6.7718795040       -6.0438333332        1.0758780972
 H         -8.1548267234       -4.0510493519        0.6323200518
 H         -7.0693921537       -1.8607389280        0.2353302843
 H         -0.8166307426       -1.9776282972        0.6483727001
 H          1.6344256739       -1.7477475571        0.8013478926
 H          2.2001647685        2.6709864131        1.8777811240
 H          3.8285032015        4.2327962763        2.8578126745
 H          6.2377538960        3.8994926025        2.5665153305
 H          7.1023946099        1.9527739372        1.3197365040
 H          8.1145774891       -0.0296017481        0.1598523060
 H          9.4403887080       -1.8350096663       -0.8743333934
 H          8.3261718053       -3.7128840545       -2.0033545221
 H          5.8582744105       -3.8179659779       -2.1222050414
  63
       -105.58962482
 N          2.2622026194        2.7833505598       -1.4350875778
 C          1.6746682819        1.9430090023       -0.9189284773
 C          0.9538101861        0.9300454421       -0.2523584347
 C         -0.4201646053        0.8735630370       -0.3759622386
 C         -1.1662832092       -0.0882404972        0.3280708373
 C         -2.5747534173       -0.1505609349        0.1918645017
 N         -3.2273131863        0.7564802781       -0.5750049621
 C         -4.5280529231        0.6840127141       -0.6749452898
 C         -5.2347476896        1.6692717652       -1.4851774989
 C         -6.6265388669        1.6352435621       -1.5725458304
 C         -7.2956172681        2.5727949528       -2.3336418750
 C         -6.5873472630        3.5505148302       -3.0153469783
 C         -5.2032255354        3.5882998471       -2.9331232107
 C         -4.5271461373        2.6555572721       -2.1731775734
 N         -5.2546647533       -0.2634845654       -0.0531424740
 C         -4.5745962376       -1.1566619266        0.6895149835
 C         -5.3294130440       -2.2109337598        1.3571657920
 C         -4.6678389003       -3.1868247289        2.1033349883
 C         -5.3864981799       -4.1872287263        2.7255466410
 C         -6.7684935313       -4.2269504852        2.6127004081
 C         -7.4312343457       -3.2593515612        1.8733274146
 C         -6.7192312740       -2.2556348287        1.2473243179
 N         -3.2756980211       -1.1197362446        0.8285713864
 C         -0.4744364904       -0.9876261552        1.1785231556
 C          0.8876675477       -0.9281280419        1.3057062236
 C          1.6304198742        0.0168890590        0.5915243359
 N          3.0284312653        0.0579115403        0.7048805830
 C          3.7516413442        0.1914352738        1.8868536897
 C          3.2836158262        0.3408977811        3.1784926638
 C          4.2206045410        0.4732676822        4.1911876793
 C          5.5862426539        0.4625848229        3.9202957918
 C          6.0607291643        0.3304459973        2.6299217254
 C          5.1421241923        0.1975352698        1.5920488358
 C          5.2456027013        0.0623563955        0.1785047661
 C          6.1968241568       -0.0495236623       -0.8704563827
 C          7.5915333213       -0.0223036815       -0.8343425663
 C          8.3059991430       -0.1596579092       -2.0066804402
 C          7.6547316377       -0.3242988957       -3.2243079710
 C          6.2698711507       -0.3550960831       -3.2885761012
 C          5.5530100493       -0.2186969088       -2.1182353335
 S          3.7888061054       -0.2407898776       -1.9999611210
 C          3.9284745594       -0.0113652862       -0.3010323114
 H         -0.9374937809        1.5746174692       -1.0125656266
 H         -7.1622620655        0.8673817988       -1.0359221186
 H         -8.3737283684        2.5440978112       -2.3978450206
 H         -7.1131785854        4.2827737501       -3.6102329768
 H         -4.6521331749        4.3497004749       -3.4656925562
 H         -3.4506264440        2.6725240239       -2.1003558643
 H         -3.5923426641       -3.1439015294        2.1797002778
 H         -4.8710852921       -4.9421916637        3.3012439493
 H         -7.3276900442       -5.0120793862        3.1000355432
 H         -8.5074347286       -3.2914089680        1.7853588933
 H         -7.2192752734       -1.4963963891        0.6663601663
 H         -1.0490943373       -1.7230860275        1.7181154951
 H          1.4119274529       -1.6258996797        1.9427416811
 H          2.2255202136        0.3619294517        3.3897194553
 H          3.8833029263        0.5908656317        5.2096605349
 H          6.2852178860        0.5673178498        4.7362924675
 H          7.1201330864        0.3352743729        2.4269058828
 H          8.0967849348        0.1070889489        0.1098759065
 H          9.3850467096       -0.1383519202       -1.9802263843
 H          8.2306510974       -0.4294079174       -4.1308733538
 H          5.7601205164       -0.4825986750       -4.2307254086
  63
       -105.58961027
 N          1.9508195204        3.6166022665       -0.4980484653
 C          1.4641592396        2.6143668569       -0.2222034099
 C          0.8551129267        1.3785889067        0.0843881467
 C         -0.5170517123        1.2599037165       -0.0115881125
 C         -1.1525452198        0.0268435487        0.2199869123
 C         -2.5614709773       -0.0834593047        0.1226436072
 N         -3.2994194403        0.9815037027       -0.2757967517
 C         -4.5954246582        0.8519441074       -0.3787688945
 C         -5.3877575518        1.9872865431       -0.8373255176
 C         -4.7683687164        3.1964793389       -1.1551387710
 C         -5.5222651454        4.2638945791       -1.5988219178
 C         -6.8973884985        4.1392375076       -1.7316328134
 C         -7.5182082018        2.9403300370       -1.4166915643
 C         -6.7709994066        1.8681383766       -0.9712266548
 N         -5.2381141223       -0.2941506701       -0.0876192379
 C         -4.4776236171       -1.3273982867        0.3202814401
 C         -5.1471711030       -2.5756985264        0.6667014335
 C         -4.4126103787       -3.6609320895        1.1458514784
 C         -5.0539628097       -4.8359037941        1.4814032616
 C         -6.4300556384       -4.9437799176        1.3433906909
 C         -7.1648313683       -3.8691520248        0.8665921303
 C         -6.5306209794       -2.6900102662        0.5294975546
 N         -3.1768147261       -1.2521589173        0.4231354012
 C         -0.3470906594       -1.0968143494        0.5339373880
 C          1.0146897145       -0.9821860186        0.6186924031
 C          1.6435683289        0.2505045269        0.4176098843
 N          3.0381907354        0.3581766990        0.5034170327
 C          3.7601299308        1.2853400894        1.2530071935
 C          3.2969905655        2.2310730012        2.1476177911
 C          4.2350743826        3.0245711075        2.7888853383
 C          5.5978731902        2.8703583209        2.5530370680
 C          6.0700818865        1.9070442955        1.6830618267
 C          5.1500282818        1.0941624601        1.0270921776
 C          5.2565312390        0.0027481306        0.1180975596
 C          6.2061835976       -0.7722563986       -0.5996401940
 C          7.5990672611       -0.6922404202       -0.6343589660
 C          8.3119747891       -1.5638356831       -1.4313451379
 C          7.6618676345       -2.5234351267       -2.2000606445
 C          6.2792486156       -2.6253938799       -2.1844581850
 C          5.5638414240       -1.7537085460       -1.3903132842
 S          3.8005890370       -1.7223408222       -1.2499719353
 C          3.9413270575       -0.4044175445       -0.1500772949
 H         -1.1179908808        2.1163879490       -0.2760990023
 H         -3.6976410117        3.2780064545       -1.0496985613
 H         -5.0393295764        5.1983773393       -1.8442071508
 H         -7.4841364647        4.9760673536       -2.0809340775
 H         -8.5890864516        2.8439146448       -1.5211488413
 H         -7.2382662001        0.9278486844       -0.7230229142
 H         -3.3433166879       -3.5605607318        1.2504190172
 H         -4.4827791307       -5.6736913331        1.8540531406
 H         -6.9287701617       -5.8646056241        1.6079477746
 H         -8.2363512800       -3.9540216293        0.7589489250
 H         -7.0876581264       -1.8440697034        0.1577891554
 H         -0.8341147097       -2.0437984150        0.7009457554
 H          1.6233911826       -1.8417691516        0.8594629141
 H          2.2434689329        2.3490228200        2.3475750523
 H          3.8991903730        3.7756928289        3.4869051401
 H          6.2974094707        3.5109766064        3.0683343851
 H          7.1285991810        1.7812984510        1.5173050316
 H          8.1034073707        0.0527186729       -0.0393982448
 H          9.3892766086       -1.5008913486       -1.4608258121
 H          8.2367440563       -3.1958417688       -2.8180681326
 H          5.7699448015       -3.3657181829       -2.7815881308
