  55
        -91.05922605
 C         -1.6368599768        3.0501985792        2.3938723161
 C         -1.1161581504        1.8624162161        2.8799681957
 C         -1.4392322527        0.6594723848        2.2812146013
 C         -2.2799373654        0.6213140100        1.1686776365
 C         -2.8391112626        1.8270635186        0.7153389316
 C         -2.5107772444        3.0293570477        1.3199798834
 O         -3.7323903741        1.8676583551       -0.3170592203
 C         -4.0209430291        0.6923875278       -0.9519953513
 C         -4.9047868539        0.7562128027       -2.0169902517
 C         -5.2207544791       -0.3876640586       -2.7292472225
 C         -4.6339321811       -1.5922315889       -2.3828293867
 C         -3.7528941429       -1.6635676048       -1.3186080386
 C         -3.4454744645       -0.5302490962       -0.5702508169
 N         -2.5977379635       -0.5735734343        0.5361322394
 C         -1.7301918574       -1.6774349528        0.7154990223
 C         -2.1982043945       -2.9322656663        1.0880286161
 C         -1.3217221476       -4.0000346817        1.1788487750
 C          0.0266121607       -3.8350724702        0.9034337794
 C          0.5340668519       -2.5877314001        0.5421120917
 N          1.8276587860       -2.3751396006        0.3009147583
 C          2.2987240914       -1.1652157363        0.0230130956
 C          3.6942278866       -0.9592090878       -0.2193819231
 C          4.5658198475       -2.0581786181       -0.1581048468
 C          5.9080031940       -1.9044206712       -0.3892891365
 C          6.4139577162       -0.6389539311       -0.6884787917
 C          5.5758598239        0.4482678842       -0.7497952555
 C          4.1971718155        0.3291828454       -0.5177140748
 C          3.2926174123        1.4542163468       -0.5673040114
 C          3.7144468996        2.7654264070       -0.8333876315
 C          2.8280061462        3.8151920151       -0.8647015204
 C          1.4693324681        3.5997998555       -0.6288170564
 C          1.0207895568        2.3314218089       -0.3693684918
 C          1.9122085953        1.2465138303       -0.3338799432
 C          1.4107927567       -0.0587430327       -0.0477050324
 N          0.1126483760       -0.2583823896        0.1677260926
 C         -0.3636487839       -1.4638713034        0.4551993357
 H         -1.3752382930        3.9902609098        2.8533390345
 H         -0.4514400310        1.8689165664        3.7296041516
 H         -1.0438541648       -0.2637254748        2.6741156166
 H         -2.9505394037        3.9337933990        0.9316774144
 H         -5.3233126975        1.7159161374       -2.2750080509
 H         -5.9109540548       -0.3320198305       -3.5559654295
 H         -4.8573765956       -2.4868427933       -2.9433559464
 H         -3.2884031266       -2.6042584748       -1.0704970477
 H         -3.2452516453       -3.0558249458        1.3196593764
 H         -1.6906583843       -4.9703075459        1.4734610122
 H          0.7163979101       -4.6588865314        0.9931632875
 H          4.1423432601       -3.0236018206        0.0733496814
 H          6.5721698490       -2.7548128160       -0.3432950070
 H          7.4709191436       -0.5135550674       -0.8733488967
 H          6.0000453443        1.4117870436       -0.9839178418
 H          4.7577014958        2.9679897109       -1.0175410743
 H          3.1852940034        4.8136136819       -1.0715032678
 H          0.7780006003        4.4291988019       -0.6498140146
 H         -0.0234669566        2.1368025398       -0.1784901860
