55
 energy: -91.139507733152 gnorm: 0.000072491511 xtb: 6.7.1 (edcfbbe)
C           -5.19525959272132       -0.37021893655255        2.78049100963861
C           -4.54728346464201       -1.55569571464122        2.49757070353743
C           -3.66990489693832       -1.63754796249704        1.42655869818697
C           -3.42773772355110       -0.53644955320995        0.61421512442171
C           -4.06889739551312        0.66988232571106        0.92906521961752
C           -4.94656397129270        0.74588402657753        1.99542209449836
O           -3.85308499096246        1.83103208649768        0.22482673248614
C           -3.01009912118146        1.76424380048696       -0.85964124961668
C           -2.82942311519659        2.92509003293442       -1.58974047644051
C           -2.01863737702064        2.92253196910031       -2.71510940060769
C           -1.41623731209952        1.74682847287647       -3.11840580664864
C           -1.59762988064039        0.58213552191752       -2.38968755709376
C           -2.36671824018757        0.57881209286802       -1.23253685180727
N           -2.56132633023730       -0.58471182453040       -0.48370505459182
C           -1.66773391883529       -1.66117491548210       -0.64999824787121
C           -2.10410313168645       -2.91769967128367       -0.99251623814948
C           -1.19982366824450       -3.98382364542156       -1.13157371674928
C            0.14078587194245       -3.80431546205749       -0.93441044911731
C            0.63108336324993       -2.52812374984699       -0.58535847008225
N            1.94499431550074       -2.34613742383025       -0.38044977881082
C            2.36601862145115       -1.14024095930398       -0.04527530793475
C            3.77538163666839       -0.92608536220191        0.19864073653512
C            4.66109533200764       -2.00316947492030        0.09397759757816
C            6.00494746763620       -1.83505265032884        0.33527166435457
C            6.48177024286892       -0.57759024972332        0.68894104950970
C            5.62008223969508        0.49323932180832        0.79291406466511
C            4.24808823712187        0.35511021845658        0.54966157881390
C            3.31964816320369        1.47460654415004        0.64503997422415
C            3.73516299788370        2.77639333576616        0.95019641820514
C            2.83712459416445        3.81949930360413        1.02580242554789
C            1.48237725751757        3.60341725598801        0.79761426426735
C            1.04330173747208        2.33500833251772        0.49716140126171
C            1.94390305913479        1.26815269259255        0.41848504748900
C            1.45299976005731       -0.04957260293755        0.08739340963270
N            0.15848811872350       -0.21954369012081       -0.10327005682916
C           -0.27735850770249       -1.43911249030307       -0.44119810681897
H           -5.88315721703029       -0.30111332348882        3.60828350875071
H           -4.71561444092573       -2.42984200294155        3.10775132978223
H           -3.15899264525573       -2.56683470539804        1.23016984904656
H           -5.41901496556635        1.69400778495967        2.19941512820303
H           -3.33159728293160        3.82105046001572       -1.25970582989608
H           -1.87479966540448        3.83386371049182       -3.27386542743938
H           -0.80225313439046        1.72465009820766       -4.00591068560231
H           -1.13278562703801       -0.33521304606019       -2.71874534457588
H           -3.15700627138481       -3.08600018183097       -1.16435535891393
H           -1.58214413147971       -4.95596937412144       -1.40413363304857
H            0.84700689753141       -4.61342289697858       -1.03470119511665
H            4.25455991968199       -2.96467277425886       -0.17868327288628
H            6.68332615952666       -2.67081927491384        0.25291333821832
H            7.53464666326855       -0.43649053635360        0.88425494901421
H            6.02634969200478        1.45187951869939        1.07145242025815
H            4.77753049850243        2.98450018111609        1.12845330869181
H            3.19125774558739        4.81229341679501        1.26163253932983
H            0.78192081171046        4.42292757650686        0.85374317709577
H            0.00053361056006        2.13121818571598        0.30900209976152
