55
 energy: -91.095331956171 gnorm: 0.000059077731 xtb: 6.7.1 (edcfbbe)
C           -1.77304298087650        3.03410017740589        2.51712808846034
C           -1.22549106595829        1.84799325880685        2.97944196595581
C           -1.49596301679359        0.65497516293830        2.33677795794084
C           -2.31040671310552        0.62483710881516        1.20437274718771
C           -2.89197138787061        1.82800827199226        0.77018484400018
C           -2.61621029078038        3.02097441794569        1.41908829018654
O           -3.75680406003717        1.87403288139228       -0.28627100448577
C           -4.01325370181286        0.70608041771574       -0.94985072534292
C           -4.88188188661681        0.77381377040030       -2.02808832905727
C           -5.16766767189821       -0.36359318876402       -2.76301992467715
C           -4.56743825387830       -1.56543410334848       -2.42584545062493
C           -3.70153701471981       -1.64051219250808       -1.34983086255969
C           -3.42213277993623       -0.51340579103140       -0.57974500557225
N           -2.58943771687053       -0.56025395340668        0.53742319811673
C           -1.71890704583055       -1.66083477209713        0.72486920350330
C           -2.19003191430416       -2.91276829799707        1.10330510603398
C           -1.31550903753989       -3.98112291737267        1.20864506025631
C            0.03421682639530       -3.81829240260221        0.93823311348575
C            0.54294965149678       -2.57387901190693        0.56680773150637
N            1.84091871494011       -2.37294332765835        0.32254047951003
C            2.31347039585445       -1.16412801828066        0.02798110944064
C            3.70921870034055       -0.96836497360204       -0.22547769079401
C            4.57890578654835       -2.06871618083020       -0.15096499732297
C            5.92048886720044       -1.92381793353222       -0.39345160918524
C            6.42863202065037       -0.66513902710805       -0.71749413957456
C            5.59320074584602        0.42368586855974       -0.79220628410638
C            4.21511727272811        0.31302414973940       -0.54985974116652
C            3.31324787217901        1.44012799172996       -0.61583113408800
C            3.73670034761383        2.74424070819563       -0.91423997118234
C            2.85321654262408        3.79637683708633       -0.96147862004219
C            1.49595915019129        3.59123149012904       -0.70808162234312
C            1.04664733690689        2.32964741193029       -0.41700091255064
C            1.93407995769892        1.24171813354729       -0.36660806277520
C            1.42946788063075       -0.05727366665867       -0.05400115745719
N            0.12780370222325       -0.24530293478694        0.16693507469101
C           -0.35017274037794       -1.44864349839533        0.46851869658803
H           -1.55451495594256        3.96620729864840        3.01333157788805
H           -0.58272639995755        1.84828176420923        3.84593554768633
H           -1.07897154197522       -0.26748328535656        2.70916691259328
H           -3.07167787510404        3.92421625555033        1.04537737852921
H           -5.31349376807894        1.73053307728132       -2.27583419562748
H           -5.84617200276851       -0.30566368135321       -3.59905531486596
H           -4.76957687448986       -2.45439735063830       -3.00267676756855
H           -3.22838144610457       -2.57787092177523       -1.10590375915247
H           -3.23886258710932       -3.03463898135774        1.32687458016439
H           -1.68603998441059       -4.94893593121620        1.50915623233153
H            0.72470363646687       -4.64109085848562        1.03796873686167
H            4.15416289618893       -3.02909663670268        0.10022446808726
H            6.58102791420258       -2.77634863320884       -0.33584605252351
H            7.48483172896045       -0.54612607573176       -0.91044672002373
H            6.01864887770588        1.38187243158656       -1.04467418045320
H            4.77890009910323        2.93851233528693       -1.11151493638241
H            3.21195316494453        4.78852044066747       -1.19359179582945
H            0.80612960535651        4.42142381337102       -0.74114841132873
H            0.00424963050632        2.14022343424560       -0.20958433480368
