55
 energy: -91.095339664959 gnorm: 0.000054277241 xtb: 6.7.1 (edcfbbe)
C           -5.12629030386713       -0.39490274253740        2.80177015793169
C           -4.51589435301670       -1.59490556913058        2.47630227929136
C           -3.66339370719733       -1.67726646911386        1.39016041664211
C           -3.40826732639338       -0.55960237403529        0.59825972035144
C           -4.01091260997224        0.65824669754159        0.95488752482812
C           -4.86568373691519        0.73329959299605        2.04363718519974
O           -3.77985431768259        1.81743965962475        0.26701045415861
C           -2.92872083581118        1.76415041822671       -0.80017569687911
C           -2.67948324812405        2.94837928609604       -1.47529963235554
C           -1.85039699522442        2.95305399656029       -2.58402945261386
C           -1.28983283962486        1.76680231726265       -3.03024974351643
C           -1.53404249516935        0.58249266050110       -2.36159765541875
C           -2.33467027743476        0.56182191420791       -1.21929033076350
N           -2.58864141008395       -0.61489845830607       -0.52791713935060
C           -1.70061034314022       -1.70361098134399       -0.70376083917407
C           -2.15112250330227       -2.96808101727669       -1.06446294832108
C           -1.25760397246437       -4.02138474371387       -1.16243317237052
C            0.09037776731182       -3.83093575028139       -0.90142650284832
C            0.57823136699110       -2.57348258801188       -0.54629490288598
N            1.87319706833114       -2.34611495559824       -0.30950145951734
C            2.32436467820028       -1.12620987121551       -0.02722534173989
C            3.71661826790049       -0.90276060964289        0.22248214251880
C            4.60674216737007       -1.98703855665734        0.15356256282214
C            5.94553840240601       -1.81562968598938        0.39413336990422
C            6.43028458955232       -0.54589039316933        0.71086012253389
C            5.57468711224082        0.52752714711548        0.77979930562468
C            4.19884697452612        0.38981017763552        0.53858597794707
C            3.27643911281444        1.50053771058660        0.59758915436063
C            3.67563201730308        2.81394682748581        0.88858475014457
C            2.77295068946061        3.84992355775722        0.92879763769388
C            1.41997151867463        3.61857482819631        0.67500266807776
C            0.99410152951698        2.34721143262128        0.39139961622250
C            1.90130877376216        1.27536280378789        0.34900438430988
C            1.42041083273581       -0.03502888755944        0.04680339145850
N            0.12200251470963       -0.24863643427098       -0.16975150910060
C           -0.33488680921157       -1.46370089406730       -0.45645624518169
H           -5.79361308695227       -0.33129998706486        3.64636381919802
H           -4.69939661060634       -2.47644148314519        3.07050977087775
H           -3.18190659473648       -2.61258286481828        1.15469245917673
H           -5.30663134906581        1.68841986194600        2.28085869340530
H           -3.14393023335433        3.85176404672979       -1.11317199899631
H           -1.65249514796684        3.87865672854017       -3.10064621841614
H           -0.65758693908801        1.76024265161826       -3.90441968463123
H           -1.10692569441449       -0.34068816701778       -2.72066227529578
H           -3.19886797309313       -3.11171125293386       -1.28006465282890
H           -1.61197515458073       -4.99918340824468       -1.44975988493676
H            0.79497854066778       -4.64240907811854       -0.99540703270546
H            4.19999144580327       -2.95663755171075       -0.09189880186151
H            6.62210402797811       -2.65572915565034        0.34044764312739
H            7.48415137736745       -0.40619663420583        0.90273778407584
H            5.98217070837966        1.49494080310839        1.02662667440995
H            4.71381876698124        3.02844471231058        1.08601227308111
H            3.11314045283905        4.84975389122337        1.15577323742641
H            0.71527155988007        4.43641977677861        0.70203415027217
H           -0.04448373725124        2.13733058700717        0.18453872736744
