59
 energy: -98.297623771180 gnorm: 0.000063341405 xtb: 6.7.1 (edcfbbe)
C            0.85348635206481        3.61928732718823       -0.45042135329424
C            0.10328175405627        2.61345418853784       -1.03532517561238
C            0.56777811931802        1.31044864977074       -1.05637536221018
C            1.79306958100211        0.99700008370663       -0.47720850470392
C            2.57650955644135        2.03298629817203        0.04910977508634
C            2.10215155192157        3.33305773615951        0.07829486046566
O            3.83895507035090        1.78555545423743        0.53541622723541
C            4.45801229725196        0.69094250125182       -0.01569396370431
C            5.84211779753583        0.66569715805260       -0.06070619674791
C            6.49153336076879       -0.39694414776961       -0.66835531208006
C            5.75415764202561       -1.40290952773829       -1.27115122169428
C            4.37184248348665       -1.38721812965415       -1.21901658792643
C            3.70487213315687       -0.36778022014467       -0.54345730426131
N            2.30962043590496       -0.30711447341592       -0.41876948672245
C            1.51507857021322       -1.38880019728752       -0.05707278117612
C            2.01882109075926       -2.64601938859301        0.24547018093143
C            1.13131768282269       -3.67030152300389        0.55987571225933
C           -0.25686751612593       -3.42315124024438        0.59937042073634
C           -1.22302423108985       -4.39552496579875        0.87076069604305
C           -2.58209768585164       -4.05931766326986        0.93410966049088
C           -2.99069492872338       -2.76401632739489        0.74706086606114
C           -2.04083733341358       -1.74801200682442        0.50312796052094
N           -2.46136863058235       -0.42033752932306        0.33436270584285
C           -3.30527181090105       -0.06411677345155       -0.70658195365436
C           -3.77522148652616       -0.99349251188880       -1.63746288796828
C           -4.62641663959964       -0.60583867928629       -2.65444075385818
C           -5.01777484021720        0.71861666643782       -2.77978118287710
C           -4.53105526166177        1.66396337539926       -1.89347866978531
C           -3.67689026672252        1.28314919606948       -0.86962570100676
O           -3.20305947856506        2.27010520028630       -0.05517845324888
C           -2.34506971480863        1.91328518561525        0.94441798152105
C           -1.87596219013535        2.92757375515837        1.76494958823393
C           -1.03768137052070        2.62848892975677        2.82405458661603
C           -0.69609680960061        1.30874135655484        3.07803599084396
C           -1.16439240195766        0.29276997621859        2.26832575244509
C           -1.97116630700219        0.57641267367310        1.16474652158763
C           -0.65882061890816       -2.06475706592499        0.39334443480376
N            0.20140687528506       -1.09994404396503        0.08473357347513
H            0.48373972206915        4.63208616640050       -0.42548786931336
H           -0.84756546794983        2.84649244130378       -1.48920249014363
H           -0.01389168562810        0.52258566900495       -1.50395276265439
H            2.72148346662180        4.10106167982905        0.51385541971242
H            6.38907775616040        1.48343434064462        0.38113234234429
H            7.56950729716938       -0.42148218455307       -0.69263422790581
H            6.25520693455499       -2.20721531098279       -1.78766167510823
H            3.79943683814010       -2.15770916384661       -1.71121297968548
H            3.07828242014713       -2.84114608056271        0.25219455183653
H            1.50162227887520       -4.66380948264209        0.76676609788504
H           -0.90861837453255       -5.41264851892387        1.05557529655940
H           -3.30777847064799       -4.82794448015353        1.15736307106122
H           -4.03166822589856       -2.48998152783015        0.83627356273415
H           -3.45728822492333       -2.02050591364023       -1.55904827837289
H           -4.97876025142772       -1.34404419495835       -3.35795213326234
H           -5.68399620781114        1.01921290570430       -3.57256750435536
H           -4.79349439075975        2.70637332321546       -1.97895184187072
H           -2.18590919241863        3.93891377087958        1.55714617276967
H           -0.66806505905655        3.42004819041233        3.45611409007656
H           -0.06640087214201        1.06497363750438        3.91986477403548
H           -0.91554800359755       -0.73199092951985        2.48815392100330
