70
 energy: -100.920757727678 gnorm: 0.000048966674 xtb: 6.7.1 (edcfbbe)
C           -4.87782114262903       -1.10874905919419       -0.44075412994807
C           -5.90837872936242       -0.30335209607825       -0.12773313536837
C           -5.73827977369628        1.06632370903724        0.39301952822930
C           -6.47170432162476        2.11885433746467       -0.14995882174153
C           -6.33487555416715        3.40142192153605        0.34936240891709
C           -5.47473889816074        3.64838000208625        1.40673816167702
C           -4.75211969734351        2.60487680928737        1.96299470643658
C           -4.88160587335453        1.32327682450161        1.46130364494510
C           -7.29524648008203       -0.78299073630388       -0.23417960458441
C           -7.69035487458748       -1.61448317870304       -1.28172969603558
C           -8.99545766146881       -2.06139599287734       -1.37324332170362
C           -9.92912264430668       -1.68894252226121       -0.41987072802219
C           -9.54933068661104       -0.86043770500514        0.62381348306715
C           -8.24664080319714       -0.40731657236794        0.71428793167014
C           -3.46506922025532       -0.75828301966893       -0.46420664652477
C           -3.01039374009015        0.49275478460447       -0.88559069501356
C           -1.66327637706722        0.78581098007533       -0.90348879515565
C           -0.71537894076913       -0.15793520051820       -0.50612293185671
C            0.71718939849906        0.16143338191821       -0.50734038188547
C            1.16969052470258        1.42021594426552       -0.11189887710189
C            2.51657187959982        1.71615265745366       -0.10221943593619
C            3.46716784945103        0.76042272749457       -0.46805786333603
C            4.88034044095071        1.10932253817468       -0.44329032186158
C            5.90906176048185        0.30262675637350       -0.12766735360665
C            7.29691357639100        0.78028823862278       -0.22990481786424
C            7.69659681813039        1.61181927180170       -1.27567095733479
C            9.00262347917822        2.05696148047509       -1.36263298128563
C            9.93263560172112        1.68274264304788       -0.40638794575202
C            9.54827433489061        0.85418590973034        0.63557705252457
C            8.24468486359514        0.40279798778988        0.72147743964170
C            5.73550381368513       -1.06688809290560        0.39247016143847
C            4.87569852771445       -1.32274524708471        1.45848329496067
C            4.74239645350589       -2.60436931333876        1.95910298206714
C            5.46444961495421       -3.64895508596174        1.40414579103168
C            6.32787801868058       -3.40304993997596        0.34921533297046
C            6.46839070932362       -2.12049601432856       -0.14911884657581
C            3.01143637437827       -0.48994355458280       -0.89026050010124
C            1.66417166027463       -0.78234696017219       -0.90684691232590
C           -1.16689296745235       -1.41702940718032       -0.11049456973390
C           -2.51360138988366       -1.71361578553418       -0.09952099083165
H           -5.09299688774604       -2.14158531366062       -0.68842190098910
H           -7.14429722864501        1.92628203267302       -0.97434497371233
H           -6.90446710736180        4.21041070504547       -0.08560363767996
H           -5.37130601930824        4.64958741544786        1.79940017088984
H           -4.08639567146665        2.79057166997394        2.79379392798268
H           -4.32324544310673        0.50935529071345        1.90083621256602
H           -6.97262740612887       -1.89262952396452       -2.04009284933502
H           -9.28761512595500       -2.69999693218176       -2.19478750051802
H          -10.94861627346091       -2.03890990938239       -0.49246759863724
H          -10.27261121770049       -0.56556517707586        1.37071969905147
H           -7.95442040080432        0.23483092231553        1.53321122194382
H           -3.72251421613106        1.23303561663189       -1.21830253195839
H           -1.33577339056545        1.75395107492742       -1.25424941219455
H            0.45657449900373        2.16664141039986        0.20770676382987
H            2.84751855620010        2.69587914356259        0.21447044123252
H            5.09723689292467        2.14181868475548       -0.69083335303783
H            6.98174809055091        1.89147200242125       -2.03619388235227
H            9.29835108725681        2.69564348212097       -2.18283755940200
H           10.95284139437444        2.03135485929441       -0.47541335161414
H           10.26866815393979        0.55787524022019        1.38469783021225
H            7.94889002156281       -0.23940626237684        1.53907390187467
H            4.31781587787447       -0.50799178517200        1.89707628539106
H            4.07412506696713       -2.78922353835689        2.78803881625290
H            5.35806239520323       -4.65018002011202        1.79596729623510
H            6.89708077471896       -4.21288002786642       -0.08469102125593
H            7.14337667564290       -1.92879164787627       -0.97175447929352
H            3.72284295608592       -1.23031658257938       -1.22429781807496
H            1.33580199706056       -1.75008437883284       -1.25791003110523
H           -0.45306291435952       -2.16323524221579        0.20802891400932
H           -2.84372177897650       -2.69367505443565        0.21700382564727
