70
 energy: -100.847710999084 gnorm: 0.000023901827 xtb: 6.7.1 (edcfbbe)
C           -4.86488662499900       -1.14014190317185        0.31447381927726
C           -5.99653777605383       -0.25639419960351        0.16318104042429
C           -5.91480382134619        1.10507295331344        0.60829258675947
C           -6.66105389505693        2.12829297881187       -0.01059697576731
C           -6.55030014684896        3.43673933930979        0.40447657708235
C           -5.70405166428528        3.77595179054140        1.45306113760659
C           -4.95681973215521        2.78377129059796        2.07499360457824
C           -5.05195077080007        1.47415964333920        1.66120462457993
C           -7.20666419459651       -0.80020086785828       -0.38049797414639
C           -7.16441932165112       -1.91279568458391       -1.24590542711842
C           -8.31960009925670       -2.46672739628110       -1.74992906317894
C           -9.56005458040207       -1.94558510288368       -1.40342639913317
C           -9.62605039730588       -0.86111525157494       -0.53768349234188
C           -8.47619328534547       -0.29459797347777       -0.03432017866587
C           -3.53252199985863       -0.82826113298807        0.11364065529708
C           -3.07919649655866        0.41623922896975       -0.42770711257539
C           -1.75198321448211        0.70157256723268       -0.53256103390729
C           -0.75414716087689       -0.22556177971906       -0.15336648907390
C            0.64936258408595        0.09148751047153       -0.25723539107422
C            1.11061572633370        1.41598905203256       -0.15045762022077
C            2.44817211235173        1.71288481026936       -0.23085576384224
C            3.41350773933880        0.71011446224641       -0.41554138037418
C            4.80473224407099        1.08352356359301       -0.49987070532278
C            5.89372767842771        0.32726794942391       -0.23066255793113
C            7.24367808458978        0.84600363642568       -0.48011872899425
C            7.50994641059077        1.68231372722131       -1.56625055460155
C            8.78446801590188        2.16827206151304       -1.78793796816257
C            9.81993374248465        1.83192854684863       -0.93063677763458
C            9.57105977885289        0.99854724023520        0.14832511541459
C            8.29908198239668        0.50669327546893        0.36964939261640
C            5.82298262291755       -1.00875778369675        0.38772515300399
C            5.11674151665976       -1.20887105760832        1.57284078415126
C            5.08345730852281       -2.45668575482835        2.16627767306925
C            5.75258143879640       -3.52329235658597        1.58660141303342
C            6.46314143393039       -3.33264513851476        0.41267099206916
C            6.50658719797322       -2.08301204647677       -0.17833662750943
C            2.95280301029315       -0.60688619291695       -0.56416197880499
C            1.61615638933503       -0.90613304137752       -0.47919121428849
C           -1.19313366374690       -1.48586544105478        0.31890928998501
C           -2.51568774457728       -1.77853682373379        0.44582777018470
H           -5.09374723825604       -2.15878362922878        0.60695549799251
H           -7.28963752748436        1.88291840943596       -0.85436225737876
H           -7.12109291486518        4.20645782051792       -0.09592397554610
H           -5.62444648705390        4.80281280261558        1.77778371175451
H           -4.29770833631374        3.03980901338110        2.89254124799549
H           -4.48268474134234        0.70691915419734        2.16489348197227
H           -6.20320396632393       -2.30983601406342       -1.53951120462123
H           -8.26053892990629       -3.31091315777244       -2.42268622116837
H          -10.46493617780044       -2.38368803203782       -1.79773581094629
H          -10.58861123992354       -0.46285812459418       -0.24862662216787
H           -8.54447415582613        0.52104041191746        0.67055991151074
H           -3.81179701514579        1.12682323253950       -0.77783833990284
H           -1.45189803750982        1.64515405341115       -0.96465667890085
H            0.40416159309224        2.21158623287716        0.03491814433860
H            2.77358466714361        2.73913846125407       -0.12655813940567
H            4.97381300394904        2.11037640873710       -0.80328679166413
H            6.71541559817424        1.93292209800041       -2.25392971314838
H            8.97357191895054        2.80944382772111       -2.63725697808555
H           10.81541508392470        2.21371297982799       -1.10453089036393
H           10.37363508816975        0.73109831085062        0.82091084729315
H            8.11161825013745       -0.13626462548977        1.21785445070991
H            4.59896888056237       -0.37631297344251        2.02708252930169
H            4.53559673660940       -2.59813142295673        3.08696434543546
H            5.72322882702073       -4.49851504757354        2.05060001304514
H            6.98920140479778       -4.15986068260432       -0.04228577368799
H            7.06202695521639       -1.93390037037330       -1.09387794986752
H            3.65926999426142       -1.39451675880890       -0.77677772683278
H            1.29963805553000       -1.92744559060500       -0.63070834146670
H           -0.45817509478175       -2.21694871269684        0.62262702013946
H           -2.82363683135537       -2.73867646726545        0.83626176575292
