  44
  -64.4721306288000       0.420605906234484      !
 C         -5.6797120556        0.0038709913       -0.0201029141
 C         -4.9759303643        0.6786323272       -1.0054057614
 C         -3.5951258219        0.6833482844       -0.9963333498
 C         -2.8845053178        0.0005125289       -0.0045025120
 C         -1.4238208087       -0.0011212884        0.0024993201
 C         -0.7142970345       -1.2404931469       -0.0443948876
 C         -1.3809078040       -2.4611373268       -0.1797545555
 C         -0.6870724370       -3.6684847501       -0.2564222047
 C          0.6893920704       -3.6689443388       -0.2450202747
 C          1.3820993045       -2.4616578794       -0.1607219141
 C          0.7133016074       -1.2405486215       -0.0390208635
 C          1.4222452537       -0.0014744472        0.0023334684
 C          2.8840581154       -0.0000468689       -0.0046180175
 C          3.6064337577       -0.6512813377        0.9989385336
 C          4.9875164615       -0.6424806488        0.9929676648
 C          5.6781445860        0.0036717614       -0.0200967335
 C          4.9745077582        0.6486192720       -1.0250822418
 C          3.5936265088        0.6539552609       -1.0157469973
 C          0.7135734718        1.2374301894        0.0518222381
 C          1.3828439492        2.4572105967        0.1835167406
 C          0.6902013542        3.6635027452        0.2811171066
 C         -0.6863190947        3.6633118378        0.2923136929
 C         -1.3805058986        2.4570802504        0.2023830824
 C         -0.7138083220        1.2375951085        0.0572192706
 C         -3.6077881290       -0.6799036388        0.9798234865
 C         -4.9885754108       -0.6720893065        0.9732968808
 H         -6.7595234004        0.0052008590       -0.0259713930
 H         -5.5084569994        1.2016075455       -1.7867527642
 H         -3.0494155848        1.1925657817       -1.7778309686
 H         -2.4580831979       -2.4740528189       -0.2420585119
 H         -1.2376340660       -4.5936420494       -0.3400590472
 H          1.2407161948       -4.5945243563       -0.3183140734
 H          2.4601468360       -2.4740863364       -0.2062733678
 H          3.0702381870       -1.1393492407        1.8002501846
 H          5.5299147152       -1.1406003578        1.7836024465
 H          6.7579736909        0.0043464523       -0.0267091565
 H          5.5068994361        1.1479217671       -1.8218299213
 H          3.0469829266        1.1419431743       -1.8100328506
 H          2.4609941430        2.4690352939        0.2276853972
 H          1.2414956658        4.5882298141        0.3647481754
 H         -1.2365328161        4.5876925316        0.3859665357
 H         -2.4577953459        2.4693947195        0.2632726907
 H         -3.0718835792       -1.1886198201        1.7683937633
 H         -5.5309807970       -1.1920709923        1.7498983458
  44
  -64.4712137730000       0.159410753689452      !
 C         -5.6292804384       -0.0681634609        0.4966722219
 C         -5.1116986366       -0.4732188126       -0.7233531288
 C         -3.7487591368       -0.4465664093       -0.9485537375
 C         -2.8708483524       -0.0052106177        0.0453808119
 C         -1.4228311830        0.0111257595       -0.1392901611
 C         -0.7140448736       -1.1897350876       -0.4536613166
 C         -1.3757277471       -2.4032822824       -0.6575003739
 C         -0.6804924055       -3.5789000009       -0.9400806818
 C          0.6953751476       -3.5699466248       -0.9691921094
 C          1.3853989425       -2.3870141264       -0.7062773047
 C          0.7154202762       -1.1842210741       -0.4682356738
 C          1.4199537707        0.0154132086       -0.1444047222
 C          2.8701507670       -0.0032934220        0.0428724893
 C          3.4017464285        0.3519150447        1.2864506527
 C          4.7624451610        0.3048105919        1.5128517842
 C          5.6252988555       -0.0794798950        0.4980031267
 C          5.1141102294       -0.4110249602       -0.7464723793
 C          3.7511438022       -0.3787991147       -0.9734953686
 C          0.7106508859        1.2373813635        0.0595172238
 C          1.3824708825        2.4548699836        0.1981014625
 C          0.6878956366        3.6549423101        0.3434280039
 C         -0.6892046601        3.6569850072        0.3238676054
 C         -1.3841216315        2.4581202424        0.1662161533
 C         -0.7141134658        1.2378564015        0.0515270014
 C         -3.4104543879        0.4224311068        1.2637912617
 C         -4.7713262125        0.3830127433        1.4880774170
 H         -6.6941276017       -0.0997017955        0.6730750286
 H         -5.7769613364       -0.8108834186       -1.5050654843
 H         -3.3542058568       -0.7351496200       -1.9122811883
 H         -2.4508146929       -2.4424769936       -0.5791162838
 H         -1.2296271631       -4.4917536863       -1.1167330402
 H          1.2486356949       -4.4747718714       -1.1721759123
 H          2.4633009351       -2.4104988447       -0.6710414412
 H          2.7277284216        0.6392224398        2.0808787693
 H          5.1535823450        0.5659012041        2.4856904527
 H          6.6898583193       -0.1154476709        0.6756829677
 H          5.7834284030       -0.6950743854       -1.5458441866
 H          3.3592218209       -0.6151545620       -1.9524960161
 H          2.4616660136        2.4697973263        0.1767601335
 H          1.2374130795        4.5775490190        0.4572749394
 H         -1.2390074279        4.5814277556        0.4198670182
 H         -2.4623008029        2.4784606693        0.1177548477
 H         -2.7410647844        0.7575807166        2.0432224285
 H         -5.1666878798        0.7017187568        2.4417986508
  44
  -64.4709528612000       0.120951387271994      !
 C         -5.6796403792       -0.0027599400        0.0122057822
 C         -4.9866707470        0.7938397631       -0.8859441042
 C         -3.6058763719        0.8019497775       -0.8895878979
 C         -2.8837912574        0.0006306844        0.0002372360
 C         -1.4235261741        0.0016223114       -0.0047273926
 C         -0.7137883352       -1.2248777478       -0.1840407014
 C         -1.3766031512       -2.4279783043       -0.4401540397
 C         -0.6849150313       -3.6354691838       -0.5328202133
 C          0.6818629857       -3.6563198379       -0.3668319420
 C          1.3746722989       -2.4623320949       -0.1684655803
 C          0.7127197224       -1.2324307368       -0.1275527995
 C          1.4231253408        0.0004018688       -0.0052834607
 C          2.8836248611       -0.0003015733       -0.0004126606
 C          3.5963537556        0.5589173718        1.0646984424
 C          4.9771007154        0.5507236702        1.0720663723
 C          5.6791569569       -0.0025700328        0.0126619196
 C          4.9860629379       -0.5544167939       -1.0532894748
 C          3.6052183438       -0.5602983704       -1.0590188038
 C          0.7136039297        1.2339359863        0.1154642964
 C          1.3770512082        2.4630664126        0.1562714102
 C          0.6858576211        3.6577104270        0.3561850441
 C         -0.6808983587        3.6382642256        0.5227236624
 C         -1.3741456456        2.4317202566        0.4291273705
 C         -0.7129068754        1.2278388887        0.1724431821
 C         -3.5965249441       -0.8025444711        0.8960620480
 C         -4.9772355124       -0.7978640750        0.9043261244
 H         -6.7594556838       -0.0037653059        0.0170671836
 H         -5.5276524680        1.4106783154       -1.5891463080
 H         -3.0690962019        1.4079848805       -1.6054454185
 H         -2.4474845244       -2.4265269729       -0.5738947546
 H         -1.2305408438       -4.5480117293       -0.7214337427
 H          1.2264758255       -4.5880905066       -0.4012191581
 H          2.4456154572       -2.4935200121       -0.0387976601
 H          3.0519572087        0.9726938132        1.9015202080
 H          5.5106124617        0.9757131282        1.9100673600
 H          6.7589950044       -0.0031687848        0.0175115243
 H          5.5267718986       -0.9799012399       -1.8864340752
 H          3.0681071524       -0.9719064060       -1.9015929633
 H          2.4479687273        2.4928251467        0.0259281934
 H          1.2317256566        4.5887222848        0.3915590464
 H         -1.2252695902        4.5511446020        0.7133226029
 H         -2.4448753377        2.4315138234        0.5641271080
 H         -3.0520004616       -1.4070397872        1.6073015310
 H         -5.5105184139       -1.4148085769        1.6131267753
  44
  -64.4708344755000       0.106709860755022      !
 C         -5.6382249180       -0.0303560189        0.4504546902
 C         -5.0961129430       -0.5858387216       -0.6975023273
 C         -3.7296828498       -0.5761994321       -0.9010437623
 C         -2.8724444790       -0.0005571714        0.0410724624
 C         -1.4222839769        0.0030714098       -0.1256790230
 C         -0.7077917023       -1.2202938596       -0.3002361503
 C         -1.3525194384       -2.4578583823       -0.3808170605
 C         -0.6450942782       -3.6320662055       -0.6351966169
 C          0.7209417351       -3.5883818709       -0.8045319414
 C          1.3976900441       -2.3780565055       -0.6564412772
 C          0.7182153055       -1.1951739775       -0.3575921437
 C          1.4225377280        0.0269600204       -0.1226502161
 C          2.8724983289       -0.0092783162        0.0407095729
 C          3.4364829127       -0.8415899311        1.0142733989
 C          4.8007569831       -0.8681549740        1.2186867401
 C          5.6382861468       -0.0777235082        0.4465363471
 C          5.0964159961        0.7355801242       -0.5359335907
 C          3.7301109889        0.7745261012       -0.7365698661
 C          0.7079380073        1.2569359328       -0.0025605392
 C          1.3523225840        2.4784274756        0.2128818797
 C          0.6447194672        3.6794309849        0.2437296909
 C         -0.7213043744        3.6769565345        0.0689579436
 C         -1.3978498153        2.4658837192       -0.0737492324
 C         -0.7180831268        1.2460144858       -0.0642434559
 C         -3.4365418207        0.5752789588        1.1850439638
 C         -4.8008966216        0.5524965513        1.3894482123
 H         -6.7057808853       -0.0479212937        0.6114517842
 H         -5.7446186618       -1.0278910698       -1.4402712694
 H         -3.3156692820       -0.9845739913       -1.8117796893
 H         -2.4202655382       -2.5123374205       -0.2363501498
 H         -1.1781156852       -4.5685047805       -0.7068095610
 H          1.2765813904       -4.4851031347       -1.0347787442
 H          2.4698517857       -2.3563923811       -0.7802387079
 H          2.7837681797       -1.4453150996        1.6285344223
 H          5.2150024926       -1.5055429260        1.9865798467
 H          6.7058618146       -0.0995368782        0.6070199590
 H          5.7449807114        1.3431159633       -1.1506405256
 H          3.3162198313        1.3894765471       -1.5228135700
 H          2.4199320922        2.4974393384        0.3672354146
 H          1.1775121555        4.6061030149        0.3974643607
 H         -1.2771934093        4.6025630022        0.0586785302
 H         -2.4700592568        2.4738511486       -0.1988175531
 H         -2.7837796308        1.0138503310        1.9262838532
 H         -5.2152514985        0.9871602169        2.2877205984
  44
  -64.4706096159000       8.411360292800213E-002 !
 C         -5.6211805475        0.0908194930       -0.5269867413
 C         -4.7587135500        0.8610753255       -1.2921092192
 C         -3.4004231051        0.8298874456       -1.0513598525
 C         -2.8678715743        0.0117699644       -0.0487535809
 C         -1.4211290727       -0.0308289805        0.1450245087
 C         -0.7083541585       -1.2627607032        0.0377178225
 C         -1.3536041559       -2.4862113208       -0.1628630106
 C         -0.6447960306       -3.6866211185       -0.1924416530
 C          0.7231239830       -3.6816507863       -0.0334534588
 C          1.3995816110       -2.4691860513        0.0983786697
 C          0.7177251258       -1.2505830421        0.0933661646
 C          1.4219039086       -0.0075100970        0.1525473876
 C          2.8684470927       -0.0020474688       -0.0455767251
 C          3.7506704713        0.5586497603        0.8818964068
 C          5.1106858926        0.5773508174        0.6381993977
 C          5.6205729568        0.0459725199       -0.5355992232
 C          4.7582493484       -0.5252567428       -1.4590264152
 C          3.4007680170       -0.5578363072       -1.2144153330
 C          0.7088248628        1.2145444358        0.3424729578
 C          1.3537860347        2.4502035456        0.4445328793
 C          0.6443588110        3.6227367246        0.7018777295
 C         -0.7242320772        3.5803124664        0.8489220759
 C         -1.4002516687        2.3719541633        0.6825529375
 C         -0.7174850206        1.1898311137        0.3883574292
 C         -3.7498156643       -0.7511769819        0.7211379078
 C         -5.1105905937       -0.7065257772        0.4847819308
 H         -6.6841086025        0.1160929103       -0.7157925772
 H         -5.1485298671        1.4866923027       -2.0821378055
 H         -2.7275004602        1.4187364059       -1.6582448428
 H         -2.4227470437       -2.5073199373       -0.3056446666
 H         -1.1782925808       -4.6150563024       -0.3323366076
 H          1.2801831826       -4.6065606287       -0.0257579965
 H          2.4733335004       -2.4746033235        0.2101197782
 H          3.3624679820        0.9486743782        1.8119019317
 H          5.7793392374        1.0085164154        1.3693346170
 H          6.6829348580        0.0709462263       -0.7277926086
 H          5.1475094871       -0.9436622403       -2.3760584494
 H          2.7277966211       -0.9873780088       -1.9427700153
 H          2.4234207350        2.5051934521        0.3151446077
 H          1.1778409746        4.5574565983        0.7906059364
 H         -1.2821275286        4.4766041541        1.0754186249
 H         -2.4745192346        2.3509051759        0.7870502328
 H         -3.3606583305       -1.3529829467        1.5299198837
 H         -5.7793326445       -1.2963012847        1.0951880368
  44
  -64.4705756649000       8.114531241898287E-002 !
 C         -5.6252905734       -0.0236819530        0.5185407021
 C         -4.7715483678       -0.7369962379        1.3462323442
 C         -3.4124907344       -0.7372799150        1.1086605981
 C         -2.8692764168       -0.0082894147        0.0442957125
 C         -1.4225590929        0.0122293773       -0.1448171090
 C         -0.7179591412       -1.2276517649       -0.2543188149
 C         -1.3980290931       -2.4337709917       -0.4343899670
 C         -0.7220611512       -3.6534074824       -0.4569101250
 C          0.6429302054       -3.6808324494       -0.2752835211
 C          1.3508549142       -2.4877480818       -0.1369754801
 C          0.7076841016       -1.2477688134       -0.1887472397
 C          1.4215777062       -0.0129084783       -0.1396484415
 C          2.8685319319        0.0045939330        0.0507122144
 C          3.7438352394       -0.6715445001       -0.8038749342
 C          5.1059921392       -0.6563732662       -0.5730836694
 C          5.6256013848        0.0246684523        0.5161631123
 C          4.7702908983        0.7086242435        1.3665719396
 C          3.4103982218        0.7066881986        1.1334301230
 C          0.7176959016        1.2290800711       -0.2248942445
 C          1.3991856605        2.4386463560       -0.3747933737
 C          0.7239428914        3.6587256064       -0.3745870566
 C         -0.6418941291        3.6826228087       -0.1989899603
 C         -1.3506985803        2.4871261379       -0.0888620153
 C         -0.7082188629        1.2480969019       -0.1650090180
 C         -3.7436999545        0.6944893898       -0.7898417308
 C         -5.1050595105        0.6822782783       -0.5544287939
 H         -6.6886169151       -0.0224007342        0.7065420489
 H         -5.1690035323       -1.2919670341        2.1838013287
 H         -2.7467280720       -1.2783314566        1.7658525103
 H         -2.4699265637       -2.4233476732       -0.5623315814
 H         -1.2775897321       -4.5685316301       -0.5976956734
 H          1.1747889967       -4.6202974952       -0.2478616046
 H          2.4175939723       -2.5282434469        0.0190783841
 H          3.3478305124       -1.1793838677       -1.6715890494
 H          5.7689650225       -1.1779968807       -1.2483761583
 H          6.6897559501        0.0268126067        0.6993612630
 H          5.1670671443        1.2426224905        2.2179746409
 H          2.7433452876        1.2256507834        1.8069259456
 H          2.4716615787        2.4303753865       -0.4978478893
 H          1.2803090132        4.5763962712       -0.4938493496
 H         -1.1737541665        4.6214021589       -0.1543554826
 H         -2.4177953783        2.5254894385        0.0648129522
 H         -3.3478439667        1.2211113214       -1.6463425895
 H         -5.7669083876        1.2252107112       -1.2138712864
  44
  -64.4695379850000       2.706317670206345E-002 !
 C         -5.6850946348        0.0181866664       -0.0114677582
 C         -4.9871266246       -0.4908153226       -1.0958249722
 C         -3.6066827100       -0.5093877071       -1.0902336668
 C         -2.8885729472       -0.0038223971       -0.0011271779
 C         -1.4301628736       -0.0052058904        0.0006524414
 C         -0.7176839764       -1.2292843157       -0.2011090743
 C         -1.3690338655       -2.4592339702       -0.3051995423
 C         -0.6599501800       -3.6444790450       -0.5186000644
 C          0.7132041353       -3.6202410908       -0.6107378986
 C          1.3959205857       -2.4136141792       -0.4565986140
 C          0.7095721837       -1.2158958205       -0.2354252612
 C          1.4068429419       -0.0016509251        0.0012744515
 C          2.8827200505        0.0007383580       -0.0028913090
 C          3.5918605990       -0.1496874665        1.1850929887
 C          4.9749622024       -0.1502548000        1.1794594678
 C          5.6663824312        0.0046351809       -0.0103203284
 C          4.9681055873        0.1576674342       -1.1963015595
 C          3.5849666020        0.1532926162       -1.1946007857
 C          0.7067432624        1.2100997870        0.2424328450
 C          1.3899643875        2.4080784413        0.4719049729
 C          0.7043077778        3.6120642773        0.6333609915
 C         -0.6684027445        3.6340940735        0.5359425003
 C         -1.3740558920        2.4489851897        0.3113674522
 C         -0.7204248759        1.2203266368        0.2054683334
 C         -3.6070632425        0.5089878511        1.0844947131
 C         -4.9874653349        0.5130584209        1.0797157122
 H         -6.7648692523        0.0294556684       -0.0168096865
 H         -5.5245226663       -0.8715504398       -1.9525079795
 H         -3.0660417224       -0.8845939108       -1.9473369901
 H         -2.4429016499       -2.5039454218       -0.2072398585
 H         -1.1997999215       -4.5755001835       -0.6076577001
 H          1.2694449126       -4.5292023610       -0.7850174605
 H          2.4748621159       -2.4012868740       -0.4993494294
 H          3.0491688025       -0.2706709077        2.1116761957
 H          5.5149708135       -0.2720711743        2.1072968261
 H          6.7464533389        0.0062790246       -0.0132591555
 H          5.5028567715        0.2820246412       -2.1268574025
 H          3.0372318062        0.2745744269       -2.1181728494
 H          2.4687851812        2.3976329302        0.5170760037
 H          1.2577621459        4.5208833868        0.8168482911
 H         -1.2111841262        4.5629200368        0.6294844359
 H         -2.4472420834        2.4933623748        0.2069936497
 H         -3.0665899097        0.8758859435        1.9452925514
 H         -5.5248960405        0.9058171095        1.9308554082
