  44
        -64.76657669
 C         -5.6796405009       -0.0011110613        0.0124089159
 C         -4.9866453948        0.6810177363       -0.9754723031
 C         -3.6058507824        0.6885905053       -0.9800600666
 C         -2.8837912398        0.0007322601        0.0001383939
 C         -1.4235261103        0.0010770219       -0.0048991628
 C         -0.7138213665       -1.2381250186       -0.0345797530
 C         -1.3766683310       -2.4633492412       -0.1433362579
 C         -0.6850131223       -3.6732034968       -0.0893043096
 C          0.6817636686       -3.6738661259        0.0779971209
 C          1.3746051057       -2.4646715764        0.1305325645
 C          0.7126862609       -1.2388302547        0.0224172718
 C          1.4231253720       -0.0002782245       -0.0052830024
 C          2.8836248533       -0.0004267724       -0.0003523294
 C          3.5963649801        0.6834655970        0.9893257526
 C          4.9771116847        0.6761858573        0.9976403978
 C          5.6791568342       -0.0011727155        0.0129208163
 C          4.9860517893       -0.6778491367       -0.9784827140
 C          3.6052070562       -0.6843432428       -0.9834687617
 C          0.7136374796        1.2388243437       -0.0345887813
 C          1.3771184684        2.4638519864       -0.1427061656
 C          0.6859570177        3.6739222941       -0.0887241622
 C         -0.6808001506        3.6747938387        0.0789339950
 C         -1.3740803183        2.4658042998        0.1319181403
 C         -0.7128737165        1.2397003760        0.0226989592
 C         -3.5965505726       -0.6882043618        0.9865065792
 C         -4.9772610438       -0.6825218823        0.9941340702
 H         -6.7594558519       -0.0014921702        0.0173484132
 H         -5.5276073595        1.2083112659       -1.7481080826
 H         -3.0690511047        1.2036005761       -1.7639441268
 H         -2.4475491393       -2.4780520711       -0.2762788094
 H         -1.2306633413       -4.6018427334       -0.1661905551
 H          1.2263509667       -4.6029722221        0.1565384589
 H          2.4455468956       -2.4799796181        0.2630280383
 H          3.0519765535        1.1954111459        1.7699679286
 H          5.5106318552        1.1993757614        1.7781050223
 H          6.7589948458       -0.0012096724        0.0178150394
 H          5.5267522927       -1.2009720239       -1.7540589706
 H          3.0680878272       -1.1948028223       -1.7700911443
 H          2.4480373183        2.4776021004       -0.2756836836
 H          1.2318505698        4.6023651603       -0.1661863183
 H         -1.2251469736        4.6040378078        0.1577423551
 H         -2.4448105452        2.4819527038        0.2659444646
 H         -3.0520455377       -1.2022734362        1.7656281070
 H         -5.5105637260       -1.2092147281        1.7723322644
