  76
       -116.11514414
 N         10.4807081031       -1.0974042756       -0.7493629496
 C          9.3641164534       -0.8750804113       -0.5929545704
 C          7.9976293733       -0.6019134164       -0.4023205558
 C          7.3204093866       -1.1216231606        0.7077216099
 C          5.9827329551       -0.8587440573        0.8833404328
 C          5.2742616716       -0.0538235380       -0.0236899608
 C          3.8647584731        0.2305010769        0.1712177732
 C          2.9409062147       -0.8411480966        0.3805838301
 C          3.3376007839       -2.1804943221        0.3041169293
 C          2.4611445943       -3.2178376421        0.6042428505
 C          1.1727135484       -2.9291638744        1.0051989725
 C          0.7339152496       -1.6099484196        1.0267886164
 C          1.5687820129       -0.5536094946        0.6454703339
 C          1.0927507199        0.7922852192        0.5474562790
 C         -0.3182456366        1.0649050858        0.7463469068
 C         -0.7493463246        2.0486090569        1.6514681213
 C         -2.0889694493        2.2599987116        1.9042562612
 C         -3.0320203481        1.4838626365        1.2419474022
 C         -2.6130922316        0.5155262279        0.3131838763
 C         -1.2825216707        0.3043312906        0.0630307640
 C         -3.8002394972       -0.2493402311       -0.2376100362
 C         -4.0179193000       -0.0750821256       -1.7255419194
 C         -4.8079169234       -0.9821468441       -2.4225246615
 C         -5.0671930643       -0.7979924470       -3.7682648978
 C         -4.5444049259        0.2973751793       -4.4345671772
 C         -3.7632230248        1.2080480899       -3.7449865643
 C         -3.5047640867        1.0259025796       -2.3975904994
 C         -3.5824980894       -1.6969693486        0.1592721292
 C         -2.8001822122       -2.5231263481       -0.6403918331
 C         -2.5080446357       -3.8147947647       -0.2427116687
 C         -2.9914712465       -4.2986374004        0.9612640972
 C         -3.7680638056       -3.4811084428        1.7635685198
 C         -4.0572435123       -2.1862995973        1.3687545076
 C         -4.9493188557        0.4245416692        0.4866539333
 C         -6.2993476425        0.1708149451        0.3834829607
 C         -7.1813108654        0.9366843809        1.1353265137
 C         -6.7169818537        1.9412493244        1.9721284238
 C         -5.3621635965        2.2055711684        2.0778723332
 C         -4.4761850540        1.4437734908        1.3301992708
 C          2.0041325498        1.8538863272        0.2596618648
 C          1.5639054392        3.1643519121        0.0462845541
 C          2.4604918905        4.2133548907       -0.1255240352
 C          3.8181674418        3.9698345910       -0.0811928695
 C          4.2810983231        2.6646906549        0.0484482476
 C          3.4002386102        1.5830281446        0.1491882739
 C          5.9704610096        0.4683612052       -1.1264559540
 C          7.3027049313        0.1938860988       -1.3219812311
 H          7.8597669098       -1.7243344293        1.4239280279
 H          5.4715070142       -1.2391339133        1.7555286693
 H          4.3435778311       -2.4196107745       -0.0037692645
 H          2.8014923992       -4.2400145253        0.5378037815
 H          0.4913264589       -3.7177975455        1.2867363108
 H         -0.2745357988       -1.4065134267        1.3507864187
 H         -0.0068128877        2.6070899626        2.2025825454
 H         -2.3965902537        3.0020998652        2.6258942548
 H         -0.9632506314       -0.4201888102       -0.6704438320
 H         -5.2127033833       -1.8431904236       -1.9106409768
 H         -5.6805258447       -1.5119991648       -4.2983249311
 H         -4.7466634840        0.4407737130       -5.4855323121
 H         -3.3539846942        2.0668964865       -4.2565600860
 H         -2.8990247621        1.7447550936       -1.8653647032
 H         -2.4241826845       -2.1559636659       -1.5842619768
 H         -1.8983470568       -4.4439044038       -0.8749456714
 H         -2.7645953361       -5.3075951212        1.2717506044
 H         -4.1489138386       -3.8499966693        2.7044543239
 H         -4.6571883013       -1.5528314610        2.0056993193
 H         -6.6687422034       -0.6077860672       -0.2668914860
 H         -8.2423159184        0.7481338750        1.0661192673
 H         -7.4222505814        2.5239963834        2.5461860468
 H         -5.0021614838        2.9888580097        2.7281144868
 H          0.5049781545        3.3669256525        0.0076676859
 H          2.0876101994        5.2154109821       -0.2749985595
 H          4.5253001052        4.7811915977       -0.1633325948
 H          5.3450835614        2.4885997025        0.0780407243
 H          5.4325921738        1.0609414793       -1.8521877585
 H          7.8229743128        0.5844418438       -2.1845466255
  76
       -116.11496144
 N         10.5531206457        0.1314179878       -1.1143052398
 C          9.4254565477        0.1134936987       -0.8919460687
 C          8.0460014003        0.0902330717       -0.6178863771
 C          7.2763000410        1.2500635966       -0.7738506489
 C          5.9282595311        1.2214285654       -0.5095004906
 C          5.2993076377        0.0486589738       -0.0592207942
 C          3.8795726003        0.0432576946        0.2418642797
 C          3.4134856447       -0.4289041168        1.5083990878
 C          4.2906824747       -0.8557159503        2.5109210258
 C          3.8239147074       -1.4064977476        3.6997178407
 C          2.4662785389       -1.5470256930        3.9039112793
 C          1.5715778049       -1.0615352346        2.9563672750
 C          2.0142382289       -0.4376755995        1.7856115196
 C          1.0979092139        0.1566195686        0.8642921251
 C         -0.3077405813        0.2793114794        1.2026366575
 C         -0.7067953908        0.8674849830        2.4142587431
 C         -2.0360704702        1.0979324099        2.7018861632
 C         -3.0014659318        0.7303384712        1.7725441624
 C         -2.6164234630        0.0978260639        0.5779812711
 C         -1.2955966016       -0.1292073807        0.2907687831
 C         -3.8217389041       -0.1657405276       -0.3029964924
 C         -3.5674135350        0.5835505672       -1.5958822025
 C         -3.9594652168        1.9075008687       -1.7416723203
 C         -3.6304682525        2.6146024148       -2.8852656656
 C         -2.8958175246        2.0117823209       -3.8915301322
 C         -2.4955642327        0.6937800125       -3.7499891189
 C         -2.8275433630       -0.0149737856       -2.6100015314
 C         -4.1218925562       -1.6343593238       -0.5177567696
 C         -4.9356734390       -2.0313862975       -1.5726705502
 C         -5.2729885361       -3.3624733522       -1.7362073233
 C         -4.8066067418       -4.3137513132       -0.8446152873
 C         -4.0018293660       -3.9241858839        0.2118096434
 C         -3.6641869753       -2.5923238264        0.3769533705
 C         -4.9396029679        0.4114693706        0.5435098512
 C         -6.2878214270        0.4680601000        0.2665342160
 C         -7.1395671091        1.0280384800        1.2101703047
 C         -6.6478153691        1.5158248425        2.4124003904
 C         -5.2949158665        1.4580528838        2.7003291521
 C         -4.4385683131        0.9031520822        1.7606376860
 C          1.5678007085        0.6580958349       -0.3903594693
 C          0.7250589918        1.3125551243       -1.2959989669
 C          1.1675865243        1.6941630174       -2.5577978409
 C          2.4689079504        1.4360648717       -2.9372712687
 C          3.3518271083        0.8693652458       -2.0240628811
 C          2.9480254777        0.5306348099       -0.7285105615
 C          6.0850055976       -1.1051634710        0.0936273650
 C          7.4303592476       -1.0919529000       -0.1883927629
 H          7.7533179807        2.1638430853       -1.0971808633
 H          5.3427224718        2.1237851345       -0.6074927362
 H          5.3547481089       -0.7512102617        2.3675222772
 H          4.5291037380       -1.7348262107        4.4481411614
 H          2.0920114319       -2.0141310940        4.8023509010
 H          0.5121141638       -1.1739644500        3.1268713674
 H          0.0551937599        1.2018476945        3.1032184179
 H         -2.3173362528        1.5834587667        3.6245149995
 H         -1.0037040189       -0.6375805086       -0.6154388907
 H         -4.5234378674        2.3894398735       -0.9563709828
 H         -3.9452627140        3.6429259348       -2.9866384980
 H         -2.6357993289        2.5661773537       -4.7813098518
 H         -1.9184132940        0.2153870941       -4.5280930665
 H         -2.5145484038       -1.0441058890       -2.5094801883
 H         -5.2995438793       -1.2951062035       -2.2746921712
 H         -5.9052510353       -3.6573870561       -2.5608792273
 H         -5.0720370757       -5.3527017345       -0.9711144155
 H         -3.6366977533       -4.6593913171        0.9141348936
 H         -3.0413415096       -2.2956125333        1.2084500757
 H         -6.6782630678        0.0881084072       -0.6656218697
 H         -8.1984918828        1.0824638959        1.0057178080
 H         -7.3299727668        1.9451006180        3.1313980176
 H         -4.9137176268        1.8378603732        3.6365145985
 H         -0.2924628318        1.5364986694       -1.0176330268
 H          0.4793548116        2.1769235960       -3.2352460803
 H          2.8139839097        1.6866072889       -3.9288919109
 H          4.3694345745        0.6804562102       -2.3290989661
 H          5.6097356423       -2.0269774107        0.3951625816
 H          8.0213902928       -1.9905482007       -0.0861366627
  76
       -116.11482824
 N         10.5765929020        0.3048894925       -1.0323686534
 C          9.4469479441        0.2481056797       -0.8273458558
 C          8.0647152643        0.1816172121       -0.5756013488
 C          7.2644487708        1.3212453662       -0.7274410297
 C          5.9142399477        1.2507017009       -0.4832512842
 C          5.3126122273        0.0546317391       -0.0574111000
 C          3.8902090863        0.0111513184        0.2271613960
 C          3.4182952555       -0.4859169422        1.4817584881
 C          4.2891629520       -0.9244233655        2.4848416625
 C          3.8151283359       -1.4983996021        3.6596929368
 C          2.4566037981       -1.6485736694        3.8507005240
 C          1.5674699500       -1.1501867940        2.9045992743
 C          2.0170388275       -0.5062576425        1.7475571196
 C          1.1039364512        0.1001338918        0.8305879919
 C         -0.2985822988        0.2345492548        1.1775218790
 C         -0.6780847076        0.8221859508        2.3958775799
 C         -2.0007029298        1.0730442371        2.6955301122
 C         -2.9792185440        0.7250711265        1.7723841593
 C         -2.6149816701        0.0891412025        0.5731818202
 C         -1.3000711035       -0.1567308344        0.2732542426
 C         -3.8330314442       -0.1563339421       -0.2956011203
 C         -3.5823021314        0.5870809984       -1.5925978687
 C         -3.9597588818        1.9152243529       -1.7386973232
 C         -3.6360391916        2.6139446510       -2.8888872780
 C         -2.9211403426        1.9984616337       -3.9014753508
 C         -2.5346667988        0.6763626107       -3.7594329083
 C         -2.8615382735       -0.0240819677       -2.6128979577
 C         -4.1569472929       -1.6204559572       -0.5075056256
 C         -4.9937051768       -2.0031428878       -1.5495759533
 C         -5.3519729852       -3.3289010001       -1.7113604767
 C         -4.8836884639       -4.2893020529       -0.8307391619
 C         -4.0560636616       -3.9140430065        0.2128889891
 C         -3.6975994118       -2.5872990102        0.3764463646
 C         -4.9336708261        0.4382670289        0.5616213008
 C         -6.2835349835        0.5168993631        0.2981582983
 C         -7.1165318053        1.0914549485        1.2497964104
 C         -6.6050369360        1.5726055339        2.4464287188
 C         -5.2505760804        1.4920199606        2.7212186293
 C         -4.4131447600        0.9216275938        1.7738422224
 C          1.5769030650        0.6089907827       -0.4195863609
 C          0.7363167809        1.2613731455       -1.3288387076
 C          1.1857160172        1.6508010387       -2.5858308510
 C          2.4919492035        1.4044480145       -2.9564452009
 C          3.3723860865        0.8418707677       -2.0382039007
 C          2.9605653247        0.4936705310       -0.7479023266
 C          6.1280764142       -1.0790268961        0.0889592574
 C          7.4764692852       -1.0236557411       -0.1732948816
 H          7.7197535208        2.2527583241       -1.0306939548
 H          5.3045354954        2.1373830190       -0.5772821029
 H          5.3538289559       -0.8117254813        2.3528090868
 H          4.5156583283       -1.8360912340        4.4082636500
 H          2.0773275126       -2.1330434670        4.7377249295
 H          0.5069106618       -1.2669973539        3.0655435877
 H          0.0951412841        1.1389643919        3.0805772844
 H         -2.2667421594        1.5583477765        3.6227660037
 H         -1.0237645208       -0.6663380590       -0.6371864731
 H         -4.5084259248        2.4070558567       -0.9487184349
 H         -3.9398335801        3.6455568108       -2.9906831965
 H         -2.6663738928        2.5458800227       -4.7969611559
 H         -1.9739779824        0.1877316140       -4.5430690331
 H         -2.5616111238       -1.0570881958       -2.5128492968
 H         -5.3564157478       -1.2602455370       -2.2452453685
 H         -5.9998541917       -3.6129532338       -2.5277756311
 H         -5.1645101155       -5.3243849483       -0.9566035787
 H         -3.6900754374       -4.6562730197        0.9072086164
 H         -3.0590118805       -2.3016499490        1.1995698337
 H         -6.6897997630        0.1436761725       -0.6299294280
 H         -8.1761622507        1.1647446583        1.0549842529
 H         -7.2725277778        2.0160750736        3.1706067806
 H         -4.8535778208        1.8665969793        3.6529311528
 H         -0.2849486746        1.4767027428       -1.0575554104
 H          0.4990025811        2.1305189543       -3.2669685300
 H          2.8429284876        1.6624704215       -3.9440472229
 H          4.3949650727        0.6655177159       -2.3342965005
 H          5.6748156848       -2.0187766500        0.3682259170
 H          8.0905404334       -1.9074516970       -0.0788754845
  76
       -116.11449400
 N         10.5540202720       -0.1839875345       -1.0436609462
 C          9.4259905623       -0.1463407800       -0.8267071027
 C          8.0458692632       -0.0923180261       -0.5586093378
 C          7.5745376936        0.5911318499        0.5691303296
 C          6.2261970791        0.6349032142        0.8324276315
 C          5.2982973213        0.0217909958       -0.0243127161
 C          3.8744448095        0.0893983115        0.2578619146
 C          3.3825195343       -0.3562559856        1.5249724213
 C          4.2213255793       -0.9837304951        2.4524804869
 C          3.7362980285       -1.4814402918        3.6565826210
 C          2.3864836397       -1.4098073050        3.9318605947
 C          1.5220153597       -0.8353560774        3.0068377290
 C          1.9894412564       -0.2709745804        1.8151616541
 C          1.0896849525        0.2851924738        0.8521840515
 C         -0.3192755928        0.4246415532        1.1666038760
 C         -0.7344771918        1.0756293906        2.3408410768
 C         -2.0694142272        1.2699162469        2.6269447973
 C         -3.0256389628        0.8108734883        1.7291090799
 C         -2.6230614981        0.1469928960        0.5572902535
 C         -1.2965405123       -0.0537073295        0.2769631394
 C         -3.8227907002       -0.1913320986       -0.3055107037
 C         -3.6374859546        0.6022895789       -1.5865042106
 C         -4.1463283919        1.8879433604       -1.7126089296
 C         -3.8871963169        2.6370891532       -2.8473439251
 C         -3.1067282734        2.1163763626       -3.8645149196
 C         -2.5901639852        0.8373886970       -3.7426399572
 C         -2.8525331952        0.0861033035       -2.6118524835
 C         -4.0204534043       -1.6702187521       -0.5551644485
 C         -4.8121497078       -2.0974680629       -1.6149592257
 C         -5.0463887894       -3.4452587517       -1.8171033824
 C         -4.4965301977       -4.3837149430       -0.9603070653
 C         -3.7147383116       -3.9645892778        0.1018807293
 C         -3.4814166150       -2.6159351420        0.3064870615
 C         -4.9620093265        0.3116558864        0.5590009553
 C         -6.3172237989        0.2466122493        0.3212675007
 C         -7.1866129050        0.7697448817        1.2701557387
 C         -6.7044053835        1.3459094003        2.4366389109
 C         -5.3440946916        1.4103709228        2.6853902412
 C         -4.4706012122        0.8884471478        1.7424157178
 C          1.5798304207        0.7148164838       -0.4234560876
 C          0.7485094980        1.3441930258       -1.3569013178
 C          1.2275673488        1.7853966866       -2.5853816767
 C          2.5698732345        1.6696977695       -2.8797469507
 C          3.4334887352        1.1143184084       -1.9423635612
 C          2.9706699362        0.6042343166       -0.7242188108
 C          5.7857798925       -0.6545741193       -1.1534938901
 C          7.1339536239       -0.7213932838       -1.4147262861
 H          8.2785956246        1.0849041182        1.2229344265
 H          5.8640138504        1.1826050232        1.6901884570
 H          5.2682764728       -1.1072464314        2.2237181795
 H          4.4169395630       -1.9420117061        4.3564241894
 H          1.9914434892       -1.8151054361        4.8512136765
 H          0.4624462519       -0.8442686286        3.2082497651
 H          0.0182727487        1.4768099125        3.0037922107
 H         -2.3640503541        1.7916135401        3.5253696059
 H         -0.9918664581       -0.6022986569       -0.6011283380
 H         -4.7481908032        2.3079167558       -0.9201331151
 H         -4.2937923715        3.6341700961       -2.9331160318
 H         -2.9018988609        2.7038216815       -4.7472754051
 H         -1.9774183273        0.4225391447       -4.5298013451
 H         -2.4506010482       -0.9130672913       -2.5284286629
 H         -5.2376065909       -1.3708178685       -2.2920677783
 H         -5.6609702345       -3.7637731266       -2.6464251571
 H         -4.6783501757       -5.4361715047       -1.1191223223
 H         -3.2847900685       -4.6900260526        0.7769985682
 H         -2.8744705947       -2.2966422083        1.1411408268
 H         -6.7000516817       -0.2010468046       -0.5835979758
 H         -8.2517099023        0.7266477698        1.0974268142
 H         -7.3999825842        1.7466126280        3.1592408810
 H         -4.9704134412        1.8561916102        3.5951216152
 H         -0.2900813477        1.5141675285       -1.1226505513
 H          0.5435311331        2.2364845047       -3.2884651801
 H          2.9617290374        2.0287038648       -3.8193640926
 H          4.4900399411        1.0972418693       -2.1581651693
 H          5.0876605639       -1.1645079900       -1.8010870853
 H          7.5004128529       -1.2611565592       -2.2758032628
  76
       -116.11363564
 N         10.5773681630       -0.7717285413       -0.7008056508
 C          9.4501864996       -0.5979153138       -0.5579385282
 C          8.0710444702       -0.3844893708       -0.3818917724
 C          7.6162590689        0.5839474487        0.5216941362
 C          6.2676924421        0.7955847751        0.6822981268
 C          5.3233705609        0.0397060054       -0.0310374255
 C          3.9001969332        0.2592534473        0.1532149024
 C          3.0452460880       -0.8373949055        0.4912471151
 C          3.5651615668       -2.1076536680        0.7616440951
 C          2.7476366459       -3.1710345934        1.1288045019
 C          1.3923122290       -2.9679407133        1.2827514701
 C          0.8567033888       -1.7003442070        1.0848222998
 C          1.6461028165       -0.6219888122        0.6701263134
 C          1.1058827468        0.6960889472        0.5369960772
 C         -0.3074796289        0.9291808751        0.7835239869
 C         -0.7149828662        1.8796739003        1.7330257570
 C         -2.0471543050        2.0795500692        2.0294425057
 C         -3.0055364544        1.3294954932        1.3598372944
 C         -2.6111809103        0.3913292339        0.3900180489
 C         -1.2859755639        0.1886662256        0.0998927650
 C         -3.8226311190       -0.2912227427       -0.2161710593
 C         -3.8492242917        0.0437552834       -1.6949127397
 C         -4.5705432384        1.1301373907       -2.1713974493
 C         -4.5448426277        1.4547343814       -3.5167582702
 C         -3.7903824005        0.7048530082       -4.4014970371
 C         -3.0573561702       -0.3716707068       -3.9313581048
 C         -3.0841259834       -0.6983964637       -2.5880747094
 C         -3.8559877800       -1.7836222070        0.0474746295
 C         -4.6065813437       -2.6261068769       -0.7638278115
 C         -4.6718184728       -3.9821820591       -0.4987197449
 C         -3.9942030014       -4.5145605101        0.5846650919
 C         -3.2630410437       -3.6782757494        1.4101900112
 C         -3.2004894543       -2.3214319406        1.1477893107
 C         -4.9495835543        0.3501753893        0.5687735379
 C         -6.3012823231        0.0939760196        0.4964817496
 C         -7.1586387078        0.8013639623        1.3294937829
 C         -6.6675161261        1.7449039632        2.2205255517
 C         -5.3095152663        2.0004881211        2.3056847031
 C         -4.4479734997        1.2958897207        1.4777680184
 C          1.9588481612        1.7889018297        0.1879711635
 C          1.4383325565        3.0609928950       -0.0735507632
 C          2.2532816049        4.1164867792       -0.4671403798
 C          3.6022212565        3.9051391912       -0.6634700220
 C          4.1387573435        2.6384919360       -0.4597225858
 C          3.3543869490        1.5720366561       -0.0077997734
 C          5.7951819365       -0.9341038017       -0.9262545353
 C          7.1418288068       -1.1387298375       -1.1094640963
 H          8.3337834900        1.1559456804        1.0917712863
 H          5.9206640488        1.5252809600        1.3991953717
 H          4.6303617660       -2.2681497405        0.7066889945
 H          3.1838217793       -4.1417591066        1.3094388255
 H          0.7440772722       -3.7786372753        1.5797840420
 H         -0.1930144855       -1.5489135858        1.2751563827
 H          0.0427593470        2.4275528225        2.2742472802
 H         -2.3370655757        2.7978241753        2.7818205614
 H         -0.9842972404       -0.5097737143       -0.6657968281
 H         -5.1595046966        1.7255748343       -1.4895082247
 H         -5.1171872041        2.2985634296       -3.8732284593
 H         -3.7715709149        0.9580572880       -5.4509857669
 H         -2.4610705623       -0.9600340553       -4.6136045613
 H         -2.5166516481       -1.5462084043       -2.2326697083
 H         -5.1356653639       -2.2206728434       -1.6140063869
 H         -5.2545382078       -4.6253885833       -1.1418630681
 H         -4.0409162874       -5.5740531452        0.7877502817
 H         -2.7415655241       -4.0821985860        2.2658452477
 H         -2.6405418866       -1.6746080136        1.8075398302
 H         -6.6890252166       -0.6398446355       -0.1943829102
 H         -8.2211861713        0.6143283838        1.2827888232
 H         -7.3538931040        2.2831412327        2.8574860035
 H         -4.9286134035        2.7307436818        3.0039758286
 H          0.3755981085        3.2251635077        0.0112887561
 H          1.8193148923        5.0898600434       -0.6395299535
 H          4.2426016674        4.7087451431       -0.9940503468
 H          5.1825809450        2.4754980589       -0.6775544096
 H          5.0820138246       -1.4990640642       -1.5084907279
 H          7.4944026881       -1.8755082462       -1.8165047854
  76
       -116.11339292
 N         10.5246782188       -0.8392980100       -0.8589573263
 C          9.4049081005       -0.6503571556       -0.6806373160
 C          8.0343142135       -0.4206249496       -0.4643467899
 C          7.6157767890        0.6229557648        0.3711649285
 C          6.2750541357        0.8486288282        0.5721709866
 C          5.3021499135        0.0347165593       -0.0315569587
 C          3.8877879574        0.2664901937        0.1913507504
 C          3.0508401465       -0.8075907967        0.6339482865
 C          3.5867808862       -2.0482466238        0.9941372520
 C          2.7834841707       -3.0884504376        1.4501296541
 C          1.4266566598       -2.8896015100        1.5981133730
 C          0.8758081138       -1.6455607282        1.3121291732
 C          1.6529741299       -0.5917735416        0.8183707816
 C          1.1004971980        0.7095313126        0.6093171973
 C         -0.3185803212        0.9352823124        0.8433527494
 C         -0.7467336986        1.8967992716        1.7700632514
 C         -2.0854042086        2.0816099650        2.0507085296
 C         -3.0262318224        1.3128325639        1.3782379034
 C         -2.6094035401        0.3714239828        0.4214490880
 C         -1.2776860879        0.1731176764        0.1585016553
 C         -3.8060443580       -0.3055481893       -0.2184686007
 C         -3.8022576833        0.0837826039       -1.6853638901
 C         -4.5053586011        1.1939494899       -2.1336778127
 C         -4.4453577096        1.5733287521       -3.4634742594
 C         -3.6748399587        0.8546260011       -4.3603178463
 C         -2.9608657462       -0.2460603381       -3.9177606422
 C         -3.0213842252       -0.6271264848       -2.5899374885
 C         -3.8374884474       -1.8051503210       -0.0102510604
 C         -4.5804197018       -2.6177316262       -0.8585841690
 C         -4.6454747686       -3.9828195316       -0.6450967170
 C         -3.9741650062       -4.5544303413        0.4221389067
 C         -3.2499186574       -3.7489209531        1.2833095483
 C         -3.1879350257       -2.3829045322        1.0727179579
 C         -4.9495631750        0.3144406657        0.5594146453
 C         -6.2971142930        0.0429427295        0.4682648107
 C         -7.1731694720        0.7361311312        1.2936475788
 C         -6.7044202989        1.6818134205        2.1943455297
 C         -5.3507073084        1.9539812144        2.2968720947
 C         -4.4704899248        1.2632200371        1.4772529982
 C          1.9370234744        1.7861525341        0.1847354681
 C          1.4015586917        3.0410159120       -0.1261795104
 C          2.1966588728        4.0735252316       -0.6110058665
 C          3.5373049158        3.8524534127       -0.8482844053
 C          4.0880491123        2.6018056057       -0.5875783957
 C          3.3277255240        1.5633650155       -0.0407102024
 C          5.7386164153       -1.0144857641       -0.8580461073
 C          7.0762965800       -1.2356313816       -1.0811715302
 H          8.3557210161        1.2416073633        0.8576416589
 H          5.9579996564        1.6356988866        1.2405467086
 H          4.6529627600       -2.2023887840        0.9400505005
 H          3.2319092261       -4.0376329724        1.7011282098
 H          0.7902461979       -3.6837137864        1.9585640890
 H         -0.1748050655       -1.4890437506        1.4941773039
 H         -0.0018673636        2.4665223240        2.3067823349
 H         -2.3929303616        2.8061506659        2.7899759332
 H         -0.9561933742       -0.5406249158       -0.5848814567
 H         -5.1064310606        1.7656403364       -1.4421156072
 H         -5.0029963184        2.4357944671       -3.7980097954
 H         -3.6291619609        1.1507154061       -5.3977330415
 H         -2.3528934985       -0.8108313872       -4.6094548654
 H         -2.4671563293       -1.4922539559       -2.2561925222
 H         -5.1024487878       -2.1809109073       -1.6975066873
 H         -5.2228050771       -4.6024038369       -1.3156538341
 H         -4.0203186306       -5.6209288973        0.5846038766
 H         -2.7329729568       -4.1844992747        2.1260328151
 H         -2.6337005147       -1.7599564508        1.7595184300
 H         -6.6670997941       -0.6922771269       -0.2307219273
 H         -8.2326448952        0.5362242557        1.2332774885
 H         -7.4050766549        2.2087934710        2.8251536486
 H         -4.9876424794        2.6857734788        3.0030315609
 H          0.3422303168        3.2069173608       -0.0081790914
 H          1.7528583952        5.0346670410       -0.8220582996
 H          4.1609263186        4.6351963391       -1.2524306298
 H          5.1235231209        2.4293908287       -0.8359779975
 H          5.0027828427       -1.6277859630       -1.3570223496
 H          7.3998020586       -2.0322965108       -1.7351281756
