  56
        -95.65211624
 O          3.4645898607       -1.5073683054       -2.4250875957
 S          3.1802831279       -1.9228906664       -1.0673646401
 O          3.4576296162       -3.3045381620       -0.7552126484
 C          4.0764172869       -0.8396631842        0.0276608526
 C          5.4036033010       -1.1286607845        0.2795145751
 C          6.1887650156       -0.2462371849        0.9984212175
 C          5.6242060882        0.9442937337        1.4319297308
 C          4.2965659088        1.2311459716        1.1918679258
 C          3.4749347064        0.3270997463        0.4988140997
 N          2.1307925624        0.6042116542        0.3195406352
 C          1.6598784927        1.9222157732        0.6150881333
 C          1.3818117216        2.3073814565        1.9214643097
 C          0.9011251294        3.5810108563        2.1717310514
 C          0.6910964190        4.4640369037        1.1257187124
 C          0.9650860209        4.0764236429       -0.1760302938
 C          1.4505260183        2.8063456034       -0.4337843181
 C          1.1755101284       -0.3038325875       -0.1010617872
 C         -0.1748387153       -0.0092309589        0.0810451504
 C         -1.1658726963       -0.8940072270       -0.3435040062
 N         -2.5243641721       -0.5296436155       -0.1779741766
 C         -3.3444286507       -1.2902567063        0.6140303365
 C         -2.8924362923       -2.3880491590        1.3635236212
 C         -3.7632555245       -3.1324546177        2.1130472408
 C         -5.1426848427       -2.8071874599        2.1569093336
 C         -5.6112046049       -1.7142493521        1.4703922117
 C         -4.7435869633       -0.9344130756        0.7094099911
 O         -5.2298222298        0.1569678641        0.0903935823
 C         -4.4053964907        0.9235445041       -0.6471068769
 C         -4.9300110064        2.0539365592       -1.2715865024
 C         -4.1355744398        2.8403202025       -2.0674875218
 C         -2.7808610953        2.4863069427       -2.2834303107
 C         -2.2431451115        1.3786557507       -1.6825708438
 C         -3.0120874321        0.5803164886       -0.8233663000
 C         -0.8289110995       -2.1188716925       -0.9341825175
 C          0.5005430614       -2.4249399412       -1.0959533881
 C          1.4951769036       -1.5356751880       -0.6936002742
 H          5.7964252161       -2.0539595736       -0.1112683835
 H          7.2240626581       -0.4703570124        1.1983508308
 H          6.2267235869        1.6623703215        1.9674740227
 H          3.8872916789        2.1664593971        1.5387074343
 H          1.5427876638        1.6077030292        2.7283212209
 H          0.6881883505        3.8820308217        3.1863496078
 H          0.3126564461        5.4547454715        1.3248971692
 H          0.8015808081        4.7630803702       -0.9921305958
 H          1.6692009322        2.4890348729       -1.4425233128
 H         -0.4766838907        0.9103731037        0.5562462663
 H         -1.8427069543       -2.6354615546        1.3434289671
 H         -3.4000603124       -3.9730039212        2.6813271742
 H         -5.8148441457       -3.4117939090        2.7426780779
 H         -6.6503532923       -1.4270563534        1.5062238426
 H         -5.9707726848        2.2825736622       -1.1086260718
 H         -4.5420713673        3.7145328465       -2.5487542843
 H         -2.1728545066        3.0897349878       -2.9374504254
 H         -1.2174598730        1.1064973459       -1.8722460055
 H         -1.6047305957       -2.7915974780       -1.2635519138
 H          0.8161027986       -3.3530491721       -1.5436499745
  56
        -95.65210899
 O          3.5273254474       -2.1507058450       -2.4932188664
 S          3.1680952976       -1.9000757779       -1.1178971329
 O          3.3242596670       -3.0149846319       -0.2073721037
 C          4.1055211507       -0.5313348703       -0.4684475796
 C          5.4661748969       -0.5155833497       -0.7077014090
 C          6.2708298847        0.4432685316       -0.1203719651
 C          5.6866716536        1.3688561605        0.7320442337
 C          4.3273739845        1.3623390457        0.9652528597
 C          3.4906502219        0.4162218804        0.3493582135
 N          2.1229025135        0.4596834033        0.5589444087
 C          1.6271763060        1.3293222536        1.5817433775
 C          1.3246893210        0.7958966858        2.8266096408
 C          0.8266818859        1.6169347162        3.8235420821
 C          0.6330143558        2.9669386895        3.5788717134
 C          0.9347061080        3.4978740750        2.3355720534
 C          1.4289478647        2.6822821655        1.3321706099
 C          1.1765137491       -0.2525842052       -0.1553459491
 C         -0.1705121727        0.0919907128       -0.0430706307
 C         -1.1507535015       -0.6091179179       -0.7448595043
 N         -2.5112142052       -0.2552052863       -0.5663293520
 C         -3.0993253138       -0.4219307762        0.6637305718
 C         -2.4266032696       -0.9361688912        1.7806095323
 C         -3.0660142557       -1.0749837489        2.9853193050
 C         -4.4307057687       -0.7205966129        3.1242988745
 C         -5.1311032619       -0.2547083489        2.0404232569
 C         -4.5014470993       -0.1004173463        0.8054036622
 O         -5.2359714454        0.3183034289       -0.2416398320
 C         -4.6504640874        0.4729101451       -1.4434950532
 C         -5.4257934878        0.9033724296       -2.5170833322
 C         -4.8536714785        1.1137110975       -3.7477800711
 C         -3.4605083955        0.9134374424       -3.9250292413
 C         -2.6792343517        0.4780761900       -2.8889863749
 C         -3.2381037123        0.2151032656       -1.6275280450
 C         -0.8062118964       -1.6572002567       -1.6076643803
 C          0.5198471872       -1.9920224062       -1.7337474463
 C          1.5027363066       -1.3105820108       -1.0183252170
 H          5.8678090842       -1.2776693794       -1.3567739254
 H          7.3324312076        0.4583772131       -0.3069850011
 H          6.2986061604        2.1111210230        1.2223534566
 H          3.9038247147        2.0940658457        1.6346905753
 H          1.4829509167       -0.2578780350        3.0018721103
 H          0.5922759044        1.2020382128        4.7918049038
 H          0.2471600848        3.6060158870        4.3583504336
 H          0.7841448163        4.5496158638        2.1439961959
 H          1.6642410405        3.0833776199        0.3572299836
 H         -0.4773397951        0.9093714270        0.5896583411
 H         -1.3937493879       -1.2291231456        1.6801126661
 H         -2.5309184997       -1.4678307309        3.8343930953
 H         -4.9175650339       -0.8357266287        4.0785610038
 H         -6.1775885251       -0.0028094122        2.1087104033
 H         -6.4778023123        1.0711462449       -2.3471177070
 H         -5.4546633337        1.4447838155       -4.5782745419
 H         -3.0163755201        1.1111732062       -4.8870125329
 H         -1.6191281883        0.3339542614       -3.0280480536
 H         -1.5752516978       -2.1930091760       -2.1406789773
 H          0.8413602760       -2.7949897219       -2.3765153720
  56
        -95.65204368
 O          3.5227360586       -2.7169881881       -1.8398739205
 S          3.1612189189       -2.1854237694       -0.5465646636
 O          3.3065058209       -3.0914679703        0.5729622220
 C          4.1093137740       -0.7137262015       -0.2137102875
 C          5.4796061147       -0.8009293593       -0.3689420347
 C          6.2902296331        0.2841180813       -0.0909791506
 C          5.6973735075        1.4593574323        0.3471630730
 C          4.3300881150        1.5522324973        0.4970980292
 C          3.4909293629        0.4583838012        0.2189765161
 N          2.1209866100        0.5904826475        0.3683191205
 C          1.6316116360        1.8529858760        0.8341554535
 C          1.5507802473        2.1029973886        2.1969161618
 C          1.0639786850        3.3210313718        2.6415114548
 C          0.6543283208        4.2808957662        1.7313472877
 C          0.7345443707        4.0285569352        0.3711161525
 C          1.2253282397        2.8163675296       -0.0807545659
 C          1.1711159331       -0.3307045045       -0.0332137880
 C         -0.1836522876       -0.0177423215        0.0811043459
 C         -1.1658322196       -0.8832281613       -0.3966636793
 N         -2.5257095825       -0.5014258886       -0.2883313782
 C         -3.3906376909       -1.2614987030        0.4553560593
 C         -2.9899452996       -2.3835790440        1.1977683961
 C         -3.9041715023       -3.1245380699        1.8978903889
 C         -5.2769620592       -2.7695799485        1.8981120685
 C         -5.6960417529       -1.6518988287        1.2198516813
 C         -4.7841339428       -0.8758879269        0.5075891508
 O         -5.2234217916        0.2410761466       -0.1007511669
 C         -4.3576049748        1.0024037013       -0.7949204247
 C         -4.8326785604        2.1592688518       -1.4105069960
 C         -3.9943067584        2.9392484871       -2.1670638648
 C         -2.6434433969        2.5511712217       -2.3522361647
 C         -2.1534887447        1.4189334180       -1.7566556681
 C         -2.9677849124        0.6265689996       -0.9339870609
 C         -0.8197359891       -2.1021671661       -0.9948530962
 C          0.5096700919       -2.4417907930       -1.0590780840
 C          1.4964990482       -1.5835156647       -0.5801521018
 H          5.8832727987       -1.7400152972       -0.7132496266
 H          7.3593123417        0.2162718713       -0.2107208909
 H          6.3087622869        2.3203179761        0.5725154923
 H          3.8991215773        2.4825903393        0.8315418793
 H          1.8720843994        1.3446322846        2.8949843299
 H          1.0031588598        3.5175626645        3.7010800222
 H          0.2727244061        5.2277594828        2.0815012205
 H          0.4159795670        4.7756286681       -0.3395153253
 H          1.2959020585        2.6070953190       -1.1378826318
 H         -0.4972319484        0.9044360482        0.5432402891
 H         -1.9458919212       -2.6540860400        1.2114424230
 H         -3.5799475402       -3.9846629815        2.4606878277
 H         -5.9831439726       -3.3710367906        2.4459131859
 H         -6.7291398047       -1.3415143848        1.2248256914
 H         -5.8729852448        2.4113837025       -1.2771389218
 H         -4.3617162909        3.8351698992       -2.6392750630
 H         -2.0018034512        3.1496696392       -2.9782805314
 H         -1.1306109758        1.1196953240       -1.9209396916
 H         -1.5869315149       -2.7504718590       -1.3864078656
 H          0.8327250388       -3.3772968596       -1.4858126743
  56
        -95.65196240
 O          3.5306451273       -2.0029077652       -2.5568138876
 S          3.1644297540       -1.9007744693       -1.1635387445
 O          3.3074355165       -3.1102671466       -0.3814805748
 C          4.1118252703       -0.6113173344       -0.3795954724
 C          5.4843549015       -0.6585400780       -0.5334552766
 C          6.2965539372        0.2561003895        0.1109206816
 C          5.7045178012        1.2095692531        0.9264341383
 C          4.3350155902        1.2639551664        1.0773984233
 C          3.4933723743        0.3547905012        0.4125619342
 N          2.1209341058        0.4555565268        0.5600516020
 C          1.6261660392        1.4314182959        1.4841160192
 C          1.3426482419        1.0525071722        2.7885501351
 C          0.8479131411        1.9876304422        3.6819217402
 C          0.6376295748        3.2946396339        3.2742471436
 C          0.9214271865        3.6708417865        1.9714841411
 C          1.4144109278        2.7413248887        1.0719508120
 C          1.1745656677       -0.2631291032       -0.1468076948
 C         -0.1758588279        0.0639443260       -0.0159107748
 C         -1.1552338137       -0.6343585557       -0.7204461167
 N         -2.5170357054       -0.2880093500       -0.5280000434
 C         -3.1132638274       -0.5339647143        0.6836024181
 C         -2.4456762879       -1.1172187130        1.7688632998
 C         -3.0955365219       -1.3446537166        2.9543451772
 C         -4.4653738452       -1.0124735667        3.1027631246
 C         -5.1583446058       -0.4730294756        2.0487756487
 C         -4.5176725545       -0.2256964854        0.8345521350
 O         -5.2413088861        0.2719050092       -0.1852980592
 C         -4.6441540328        0.5139884877       -1.3669456020
 C         -5.4062234874        1.0304588694       -2.4120013333
 C         -4.8220598668        1.3225772979       -3.6199288074
 C         -3.4306212677        1.1140567326       -3.8042739094
 C         -2.6621942975        0.5955880947       -2.7971875672
 C         -3.2325262024        0.2573894604       -1.5595934810
 C         -0.8117184911       -1.6683061339       -1.5987716123
 C          0.5155656105       -1.9965816212       -1.7313168678
 C          1.4997141779       -1.3156182892       -1.0168727569
 H          5.8882768915       -1.4316773966       -1.1676602519
 H          7.3670971495        0.2213506127       -0.0103549482
 H          6.3183476813        1.9250074918        1.4527914234
 H          3.9052906252        2.0172556984        1.7185626926
 H          1.5123315030        0.0301522640        3.0918467777
 H          0.6271501640        1.6937564038        4.6966183781
 H          0.2520898269        4.0215519633        3.9727435383
 H          0.7582290391        4.6890850043        1.6527463532
 H          1.6392735507        3.0202068582        0.0531973970
 H         -0.4882104788        0.8652978943        0.6341721476
 H         -1.4086718533       -1.3919230501        1.6573535853
 H         -2.5656087759       -1.7900598657        3.7804000917
 H         -4.9607443013       -1.2001622932        4.0410420961
 H         -6.2067088666       -0.2308222958        2.1250924018
 H         -6.4576766256        1.1968171740       -2.2377534319
 H         -5.4124468224        1.7211851306       -4.4280388320
 H         -2.9784112913        1.3710032761       -4.7483413510
 H         -1.6037320086        0.4422616693       -2.9400680666
 H         -1.5803416483       -2.1979339920       -2.1383575252
 H          0.8383559766       -2.7918508447       -2.3829722231
  56
        -95.65192880
 O          3.5370837798       -2.3499513321       -2.1106001260
 S          3.1750059981       -2.1366056941       -0.7275163970
 O          3.3419472283       -3.2729670046        0.1509243757
 C          4.1096194158       -0.7575293564       -0.0920220419
 C          5.4840160085       -0.9017477335       -0.0756108137
 C          6.2954867518        0.1249839378        0.3694800271
 C          5.6997610158        1.3061903825        0.7879391892
 C          4.3295416981        1.4543358624        0.7725062727
 C          3.4886129988        0.4143021901        0.3373938684
 N          2.1166194589        0.5932300463        0.3493571256
 C          1.6187017566        1.8842521680        0.7182817332
 C          1.4311841730        2.2084161188        2.0558997870
 C          0.9256887053        3.4524914532        2.3936595923
 C          0.6029296709        4.3653107930        1.4034278677
 C          0.7903882406        4.0393164548        0.0696034827
 C          1.3001944078        2.8000925656       -0.2756821994
 C          1.1729126537       -0.3279130393       -0.0662333976
 C         -0.1823562806       -0.0229632793        0.0653512914
 C         -1.1667280419       -0.8905472267       -0.4025331452
 N         -2.5258865943       -0.5170208999       -0.2664885939
 C         -3.3736350724       -1.2900388525        0.4854500831
 C         -2.9587339971       -2.4290085528        1.1926637644
 C         -3.8564115383       -3.1789840743        1.9052130333
 C         -5.2252390165       -2.8142203967        1.9567183201
 C         -5.6560118162       -1.6786271057        1.3170701770
 C         -4.7609076402       -0.8948296096        0.5914347364
 O         -5.2101179776        0.2410909757        0.0269192807
 C         -4.3613988394        1.0122702951       -0.6774924295
 C         -4.8442405221        2.1908124918       -1.2427601646
 C         -4.0245708831        2.9821775442       -2.0083950620
 C         -2.6863950824        2.5833679336       -2.2543776997
 C         -2.1877388245        1.4316425301       -1.7063581537
 C         -2.9809611303        0.6263478624       -0.8742996098
 C         -0.8213836762       -2.1063862093       -1.0082959853
 C          0.5093779742       -2.4346058069       -1.0970134299
 C          1.4985267382       -1.5720699141       -0.6303818149
 H          5.8904773606       -1.8380555628       -0.4241588202
 H          7.3672443208        0.0114545000        0.3845531650
 H          6.3117693646        2.1267879329        1.1309530256
 H          3.8969420395        2.3870422271        1.0980763545
 H          1.6837963580        1.4860003768        2.8176619972
 H          0.7807773483        3.7061544318        3.4327987161
 H          0.2045191607        5.3320921258        1.6706486592
 H          0.5400904448        4.7497036712       -0.7031827745
 H          1.4522182767        2.5321262749       -1.3107800942
 H         -0.4938537452        0.8955148185        0.5362182011
 H         -1.9169505889       -2.7073046045        1.1699812378
 H         -3.5208756217       -4.0530957573        2.4390206198
 H         -5.9184464127       -3.4218419186        2.5141548342
 H         -6.6852611373       -1.3592547025        1.3633127453
 H         -5.8758042812        2.4508297243       -1.0644361171
 H         -4.3980412843        3.8948270129       -2.4420296803
 H         -2.0614526454        3.1906460064       -2.8885679378
 H         -1.1746195840        1.1269359313       -1.9150110379
 H         -1.5893733997       -2.7582165726       -1.3923729609
 H          0.8317168879       -3.3645530655       -1.5364025655
  56
        -95.65187801
 O          3.4753903324       -1.7613114403       -2.3402347291
 S          3.1866749781       -2.0037095655       -0.9424722610
 O          3.4540639965       -3.3394634539       -0.4637156952
 C          4.0947374746       -0.8103023249        0.0223110649
 C          5.4445316498       -1.0402271755        0.2077323897
 C          6.2366538035       -0.1004824508        0.8409241871
 C          5.6521686010        1.0839767074        1.2658505804
 C          4.3041072211        1.3138152622        1.0897971951
 C          3.4801919081        0.3574282232        0.4727451960
 N          2.1234159573        0.5956792117        0.3454865466
 C          1.6420330760        1.9246054235        0.5710070620
 C          1.3444717228        2.3726972189        1.8526137930
 C          0.8433470952        3.6509418531        2.0304948087
 C          0.6347908506        4.4762800944        0.9380492215
 C          0.9336281194        4.0275424550       -0.3386431967
 C          1.4380149728        2.7526660023       -0.5242799457
 C          1.1760280669       -0.3301590744       -0.0527163120
 C         -0.1756552053       -0.0357440717        0.1207447638
 C         -1.1668847490       -0.9146258775       -0.3149200554
 N         -2.5235642642       -0.5422445092       -0.1675314432
 C         -3.3783347741       -1.3378143970        0.5529921667
 C         -2.9666653296       -2.4854382105        1.2497149916
 C         -3.8736207263       -3.2675837123        1.9136987935
 C         -5.2503592506       -2.9305474585        1.9250457447
 C         -5.6787499489       -1.7834419773        1.3038064856
 C         -4.7733467024       -0.9643835377        0.6329747075
 O         -5.2206873787        0.1858665577        0.0968070612
 C         -4.3615360833        0.9907694523       -0.5552144268
 C         -4.8426094627        2.1896914836       -1.0784012822
 C         -4.0168345528        3.0151216900       -1.8002247168
 C         -2.6771593776        2.6273459995       -2.0505392217
 C         -2.1812939827        1.4547872258       -1.5448717015
 C         -2.9772217105        0.6188104169       -0.7460945595
 C         -0.8249389862       -2.1396961187       -0.9052163714
 C          0.5052049139       -2.4553432089       -1.0373386554
 C          1.4995907342       -1.5714685792       -0.6223034391
 H          5.8488007756       -1.9683841307       -0.1642493921
 H          7.2896334884       -0.2791566051        0.9870476824
 H          6.2551298099        1.8408797266        1.7446509566
 H          3.8771758606        2.2445432988        1.4284154120
 H          1.5041484737        1.7174856888        2.6963519033
 H          0.6119859703        4.0002962671        3.0254060559
 H          0.2394994290        5.4702423809        1.0810033022
 H          0.7741036933        4.6701326376       -1.1908479197
 H          1.6738499222        2.3869011868       -1.5127947217
 H         -0.4776878368        0.8833105570        0.5965339106
 H         -1.9196058335       -2.7440640821        1.2581028294
 H         -3.5397797358       -4.1468652258        2.4401474934
 H         -5.9513314155       -3.5657304655        2.4404739022
 H         -6.7138870142       -1.4808663520        1.3257105718
 H         -5.8776113416        2.4373842978       -0.9024647528
 H         -4.3875242070        3.9450429266       -2.1982125526
 H         -2.0468399489        3.2584813358       -2.6555557536
 H         -1.1668799023        1.1618798627       -1.7624026401
 H         -1.5968755316       -2.8039439843       -1.2591820770
 H          0.8220950030       -3.3856251464       -1.4797376767
  56
        -95.65181748
 O          3.4224376969       -1.2755557793       -2.5476565768
 S          3.1562280363       -1.8171264710       -1.2314144813
 O          3.4333415208       -3.2218796643       -1.0527070309
 C          4.0641364887       -0.8477874904       -0.0454958086
 C          5.3778755138       -1.1885139312        0.2120973194
 C          6.1564593976       -0.3994114508        1.0391481392
 C          5.5975153669        0.7469938681        1.5843689407
 C          4.2825246631        1.0839935826        1.3380776127
 C          3.4701000360        0.2780065275        0.5233964317
 N          2.1381906053        0.6062847766        0.3327237090
 C          1.7018443554        1.8921082789        0.7854763648
 C          1.2511054430        2.0706844320        2.0884297058
 C          0.8236200348        3.3211225970        2.4995484731
 C          0.8447227163        4.3882373541        1.6161438922
 C          1.2944265020        4.2074595615        0.3185240512
 C          1.7233316625        2.9591582431       -0.1003606638
 C          1.1683886522       -0.2504619299       -0.1556690455
 C         -0.1814618360        0.0609773949        0.0091403010
 C         -1.1728554526       -0.8184015204       -0.4244746008
 N         -2.5357504629       -0.4695468494       -0.2304433343
 C         -3.2738272543       -1.1371034522        0.7081034627
 C         -2.7241129290       -2.0878654496        1.5822278234
 C         -3.5134005797       -2.7459698638        2.4862725019
 C         -4.9068463331       -2.4852750595        2.5551051987
 C         -5.4734871965       -1.5480827175        1.7265883285
 C         -4.6899139850       -0.8531762140        0.8085234626
 O         -5.2702336336        0.0762018478        0.0264487563
 C         -4.5227628193        0.7583999230       -0.8610862364
 C         -5.1443456403        1.7132410620       -1.6662658643
 C         -4.4205654194        2.4117598971       -2.5990155659
 C         -3.0363876683        2.1538725907       -2.7635260320
 C         -2.4052448022        1.2116139191       -1.9929719035
 C         -3.1087811485        0.4985656009       -1.0141463028
 C         -0.8462678268       -2.0374331779       -1.0269092157
 C          0.4812329097       -2.3374562583       -1.2170791062
 C          1.4788121918       -1.4594811186       -0.7978372074
 H          5.7643611270       -2.0797710253       -0.2564805294
 H          7.1813212402       -0.6639069242        1.2438224310
 H          6.1926838783        1.3877494659        2.2176472426
 H          3.8741073058        1.9787530649        1.7808530475
 H          1.2401284865        1.2302257447        2.7671140664
 H          0.4737065933        3.4609857604        3.5112311517
 H          0.5106619662        5.3620214710        1.9403142160
 H          1.3122692657        5.0383104531       -0.3700836301
 H          2.0773989833        2.8019736797       -1.1082376137
 H         -0.4827796848        0.9816156569        0.4823787551
 H         -1.6649224801       -2.2878792200        1.5301844154
 H         -3.0774139051       -3.4697115950        3.1554864926
 H         -5.5136937195       -3.0212390248        3.2657703812
 H         -6.5274879139       -1.3220612890        1.7673546388
 H         -6.2016517726        1.8781537739       -1.5305553679
 H         -4.9013825038        3.1509857417       -3.2181826000
 H         -2.4807886016        2.6989044057       -3.5089293844
 H         -1.3558873067        1.0049580318       -2.1343410655
 H         -1.6275111177       -2.7081084771       -1.3471790034
 H          0.7930279968       -3.2509091625       -1.6961444423
  56
        -95.65170750
 O          3.4883754717       -0.7762285618       -2.6733099884
 S          3.1804489686       -1.5626626678       -1.4971833099
 O          3.4479535563       -2.9775534050       -1.5920942458
 C          4.0559076346       -0.8534071928       -0.1183422256
 C          5.3618049501       -1.2458870757        0.1030477344
 C          6.1175390852       -0.6385021607        1.0893617321
 C          5.5440268877        0.3810013801        1.8349492106
 C          4.2363044017        0.7667070153        1.6247872616
 C          3.4475795024        0.1428305949        0.6438592838
 N          2.1218244069        0.5109251286        0.4870528086
 C          1.6849031190        1.6998974945        1.1532591389
 C          1.1449980684        1.6418866177        2.4331313140
 C          0.7217427710        2.8059425826        3.0505884519
 C          0.8374565412        4.0219516490        2.3966253412
 C          1.3773842490        4.0769686296        1.1220907071
 C          1.8011497904        2.9164164980        0.4968696538
 C          1.1649452939       -0.2240575383       -0.1888012675
 C         -0.1885614083        0.0599813113       -0.0051199508
 C         -1.1683196171       -0.7043109807       -0.6367765170
 N         -2.5352029025       -0.3958851893       -0.3985106906
 C         -3.1081062189       -0.7529555951        0.7940050534
 C         -2.4069082571       -1.3985815200        1.8206794698
 C         -3.0360765913       -1.7506338999        2.9864535995
 C         -4.4166432069       -1.4829916688        3.1707325655
 C         -5.1378729010       -0.8722286366        2.1761411687
 C         -4.5186644660       -0.4954503189        0.9845303455
 O         -5.2615748108        0.0823939932        0.0220757377
 C         -4.6817456729        0.4449391582       -1.1373797984
 C         -5.4613795892        1.0451576423       -2.1236560640
 C         -4.8953666522        1.4431251808       -3.3096045723
 C         -3.5075630763        1.2513651313       -3.5364981096
 C         -2.7215785538        0.6531732287       -2.5884795865
 C         -3.2706882187        0.2219997168       -1.3715425266
 C         -0.8282005072       -1.7712556303       -1.4729385594
 C          0.5041846028       -2.0425278757       -1.6754887376
 C          1.4909203396       -1.2817473106       -1.0520204564
 H          5.7610175428       -2.0301827681       -0.5204139668
 H          7.1365268205       -0.9433197044        1.2652484607
 H          6.1215447491        0.8808152771        2.5981304256
 H          3.8140500510        1.5567497671        2.2256702959
 H          1.0618570347        0.6880787130        2.9334580164
 H          0.3015455678        2.7619896023        4.0440397462
 H          0.5074574304        4.9278044677        2.8820121771
 H          1.4695790169        5.0236703786        0.6119619703
 H          2.2230713533        2.9420399188       -0.4967997026
 H         -0.5022541168        0.8720149299        0.6308111640
 H         -1.3607928897       -1.6199316985        1.6753589864
 H         -2.4835327339       -2.2443445277        3.7691669404
 H         -4.8960292447       -1.7718976125        4.0913797005
 H         -6.1918915638       -0.6702346969        2.2846251386
 H         -6.5114735987        1.1886412605       -1.9226221967
 H         -5.4992053139        1.9079971040       -4.0711543961
 H         -3.0730524804        1.5820351956       -4.4657585108
 H         -1.6663426139        0.5070362529       -2.7610189927
 H         -1.6011577629       -2.3549442922       -1.9467675537
 H          0.8276373573       -2.8433459749       -2.3199368026
  56
        -95.65165420
 O          3.3808247611       -1.0540838767       -2.5544015232
 S          3.1668231748       -1.7349601317       -1.2940821842
 O          3.5024577719       -3.1375326368       -1.2595112980
 C          4.0552157051       -0.8428922028       -0.0355845033
 C          5.3577884674       -1.1994222361        0.2534289812
 C          6.1050204780       -0.4486637551        1.1435908899
 C          5.5274859030        0.6725391533        1.7210863112
 C          4.2217897869        1.0233043697        1.4443336148
 C          3.4423278745        0.2569370693        0.5630209448
 N          2.1161460293        0.5905989635        0.3416079184
 C          1.6870026029        1.8941453190        0.7448686905
 C          1.1259787651        2.1090714768        1.9985154747
 C          0.7085091977        3.3803188791        2.3526186527
 C          0.8522880969        4.4327726679        1.4631548158
 C          1.4160744064        4.2167114609        0.2165445808
 C          1.8334830906        2.9473065502       -0.1460048140
 C          1.1557641550       -0.2761075398       -0.1475619401
 C         -0.1977329382        0.0096101076        0.0206939218
 C         -1.1729205705       -0.8893523136       -0.4098241251
 N         -2.5394965742       -0.5465400579       -0.2312247382
 C         -3.2894979029       -1.2033026985        0.7069019921
 C         -2.7658978059       -2.1896562369        1.5557471294
 C         -3.5623835149       -2.8156152787        2.4774397830
 C         -4.9349648944       -2.4769562184        2.5959241480
 C         -5.4747798969       -1.5026003334        1.7934268361
 C         -4.6847442490       -0.8472451935        0.8511579038
 O         -5.2393848759        0.1218965072        0.0993038752
 C         -4.4850499305        0.7754581733       -0.8039073601
 C         -5.0767615099        1.7760423990       -1.5736075173
 C         -4.3436921707        2.4516674257       -2.5168134467
 C         -2.9801955174        2.1231410633       -2.7259895500
 C         -2.3769667854        1.1401900332       -1.9861587516
 C         -3.0897588235        0.4474670375       -0.9974851677
 C         -0.8246116914       -2.1043794556       -1.0084787623
 C          0.5082001738       -2.3760599069       -1.2091297789
 C          1.4883614999       -1.4753883105       -0.7996099645
 H          5.7615276607       -2.0686946483       -0.2411160467
 H          7.1218949029       -0.7236288911        1.3731653319
 H          6.0993879894        1.2799508633        2.4065181613
 H          3.7936988033        1.8942994464        1.9154186937
 H          1.0229210451        1.2811993755        2.6851316979
 H          0.2725593212        3.5484408421        3.3259387829
 H          0.5266594638        5.4228819897        1.7436480432
 H          1.5314987488        5.0363029101       -0.4761654755
 H          2.2736990947        2.7610015499       -1.1142454516
 H         -0.5160584466        0.9274516105        0.4882455030
 H         -1.7207279329       -2.4448791102        1.4716299775
 H         -3.1464341225       -3.5709524741        3.1240929385
 H         -5.5467338306       -2.9822784290        3.3246669462
 H         -6.5117886501       -1.2161028762        1.8719393919
 H         -6.1193650933        1.9946856197       -1.4040030755
 H         -4.8014485290        3.2261677305       -3.1096199693
 H         -2.4182954699        2.6488373133       -3.4806177636
 H         -1.3436761239        0.8836624892       -2.1600216240
 H         -1.5934663028       -2.7903736739       -1.3263452588
 H          0.8355163054       -3.2800067251       -1.6961835489
  56
        -95.65153382
 O          3.4089565762       -1.1104192732       -2.6103970415
 S          3.1550269762       -1.7360715779       -1.3294174174
 O          3.4424092877       -3.1475279713       -1.2426880065
 C          4.0642498112       -0.8376243235       -0.0902298218
 C          5.3813422029       -1.1854452903        0.1393330993
 C          6.1581057895       -0.4472716377        1.0136237731
 C          5.5925888304        0.6543720752        1.6384329708
 C          4.2743351043        0.9976670507        1.4198849266
 C          3.4653709698        0.2450329692        0.5522557694
 N          2.1320972819        0.5813035571        0.3839869972
 C          1.6982162296        1.8332242638        0.9254342272
 C          1.2072333831        1.9129386106        2.2234913863
 C          0.7911258504        3.1342664098        2.7241277844
 C          0.8645463828        4.2706680758        1.9349201895
 C          1.3541745109        4.1882937705        0.6419129796
 C          1.7712289057        2.9695948962        0.1334435080
 C          1.1643990991       -0.2428903286       -0.1605505431
 C         -0.1870244486        0.0629776375        0.0062327631
 C         -1.1736846362       -0.7926513585       -0.4798784866
 N         -2.5400744385       -0.4494349247       -0.2806204900
 C         -3.2327000268       -1.0201918340        0.7510174763
 C         -2.6387082736       -1.8746440296        1.6908818871
 C         -3.3834923605       -2.4379674809        2.6924116533
 C         -4.7749717967       -2.1763827508        2.7924517641
 C         -5.3863565237       -1.3409379469        1.8908645432
 C         -4.6484324107       -0.7430478201        0.8711796081
 O         -5.2730804957        0.0792928904        0.0074575253
 C         -4.5707184755        0.6618405568       -0.9822565330
 C         -5.2335967792        1.5049953718       -1.8735900795
 C         -4.5493626218        2.1041255597       -2.9010345182
 C         -3.1621580639        1.8613994238       -3.0711911106
 C         -2.4901494864        1.0272891353       -2.2163220197
 C         -3.1558639590        0.4106548310       -1.1491042844
 C         -0.8455810658       -1.9799049054       -1.1394658437
 C          0.4836473899       -2.2700959619       -1.3367711589
 C          1.4779291527       -1.4151529531       -0.8662718992
 H          5.7716332772       -2.0411747127       -0.3883578983
 H          7.1861198518       -0.7163456684        1.1950779182
 H          6.1850762682        1.2542954529        2.3128189293
 H          3.8605737918        1.8554255003        1.9263645301
 H          1.1572898999        1.0198024844        2.8291475964
 H          0.4107298602        3.1975259572        3.7324628515
 H          0.5405389465        5.2217564356        2.3292237190
 H          1.4121802024        5.0729310169        0.0263419685
 H          2.1553619696        2.8886417814       -0.8724291048
 H         -0.4924199039        0.9616380538        0.5175695525
 H         -1.5818597837       -2.0783490254        1.6088915360
 H         -2.9147297480       -3.0889023187        3.4122700019
 H         -5.3465722578       -2.6367425721        3.5811681630
 H         -6.4413752087       -1.1234815788        1.9481428983
 H         -6.2900727116        1.6668052313       -1.7276021211
 H         -5.0625808755        2.7569312344       -3.5876356082
 H         -2.6380219820        2.3341518868       -3.8855761607
 H         -1.4378560715        0.8312334612       -2.3536494890
 H         -1.6251558746       -2.6339444012       -1.4959717633
 H          0.7988771305       -3.1574990149       -1.8605586592
