  56
  -95.3432654240000       0.178261835579439      !
 O          3.4406026936       -3.3257081752        0.3410425559
 S          3.1604126423       -2.0343648012        0.9238687390
 O          3.4038658415       -1.9156831537        2.3456926984
 C          4.1011020160       -0.7734834723        0.0871448910
 C          5.4617289197       -0.9821930063       -0.0348189343
 C          6.2744154457       -0.0150505677       -0.5966293542
 C          5.6963216690        1.1732955395       -1.0189005620
 C          4.3382271127        1.3826915624       -0.9048092365
 C          3.4946425142        0.4011403118       -0.3553791535
 N          2.1314508263        0.6292979705       -0.2836414404
 C          1.6563519259        1.9203605985       -0.6816803891
 C          1.4731218561        2.9049381295        0.2788081172
 C          0.9978002880        4.1498259350       -0.0975626221
 C          0.7071517120        4.4098024927       -1.4267076017
 C          0.8908815366        3.4254212061       -2.3840463186
 C          1.3638268678        2.1777842180       -2.0153736963
 C          1.1727602615       -0.2962731067        0.0851442736
 C         -0.1790459897        0.0224049716       -0.0520471685
 C         -1.1713530431       -0.8903481616        0.3020442817
 N         -2.5313703707       -0.5078872811        0.1772476506
 C         -3.0379199982        0.4685713208        0.9981609305
 C         -2.2782968206        1.1287882537        1.9732177292
 C         -2.8407715820        2.0928450383        2.7692258606
 C         -4.2110258423        2.4301000826        2.6369831725
 C         -4.9921154248        1.7779131289        1.7168477241
 C         -4.4414780981        0.7981419028        0.8905185490
 O         -5.2492000873        0.1576298311        0.0252551898
 C         -4.7396453208       -0.7942324497       -0.7783624949
 C         -5.5880941141       -1.4467375265       -1.6694319424
 C         -5.0952762186       -2.3978868967       -2.5285678407
 C         -3.7109767455       -2.7097457051       -2.5236312075
 C         -2.8585371105       -2.0919305301       -1.6488948381
 C         -3.3337292373       -1.1366833809       -0.7362112967
 C         -0.8416945920       -2.1626405803        0.7827763842
 C          0.4869841130       -2.4824807820        0.9218133251
 C          1.4854133316       -1.5692772018        0.5873164394
 H          5.8563028224       -1.9190723841        0.3252903612
 H          7.3355061078       -0.1779836641       -0.6941870688
 H          6.3120256309        1.9503011189       -1.4465241671
 H          3.9192045425        2.3173791431       -1.2424422762
 H          1.7046535830        2.6876268573        1.3108738569
 H          0.8550133292        4.9161292732        0.6488277501
 H          0.3369644981        5.3811099005       -1.7173327753
 H          0.6649995099        3.6269357798       -3.4201041596
 H          1.5110710050        1.4007269886       -2.7506954620
 H         -0.4824860917        0.9831281154       -0.4358101770
 H         -1.2399470641        0.8633432579        2.0942293981
 H         -2.2407929668        2.5938857729        3.5112235822
 H         -4.6369662235        3.1888282374        3.2725087456
 H         -6.0426814049        1.9974915573        1.6089004072
 H         -6.6322832012       -1.1761133416       -1.6646549547
 H         -5.7524224347       -2.9027659837       -3.2168575557
 H         -3.3313484530       -3.4395530793       -3.2200809754
 H         -1.8058975211       -2.3290202107       -1.6510454195
 H         -1.6203853046       -2.8585812277        1.0506337580
 H          0.8004761265       -3.4421287974        1.2987747348
  56
  -95.3432109550000       0.168277540154594      !
 O          3.3126104988       -2.9618291204       -0.2913010703
 S          3.1512732460       -2.0447791705        0.8175944756
 O          3.4998134857       -2.5546856175        2.1216553970
 C          4.0868548811       -0.5741736750        0.4538288971
 C          5.4274988991       -0.5506541566        0.7862133167
 C          6.2200374343        0.5230450928        0.4229761499
 C          5.6460049423        1.5603985526       -0.2969639897
 C          4.3049665182        1.5451511863       -0.6207111751
 C          3.4801758933        0.4755964080       -0.2345410888
 N          2.1260483665        0.5059277144       -0.5235464187
 C          1.6625303963        1.5228704407       -1.4178079457
 C          1.2849569535        2.7718937507       -0.9380981532
 C          0.8292723165        3.7352030575       -1.8211296988
 C          0.7497390068        3.4547781099       -3.1756108478
 C          1.1267024620        2.2094659262       -3.6508239323
 C          1.5832346956        1.2402549649       -2.7733909408
 C          1.1664935876       -0.2940934256        0.0699845677
 C         -0.1830502183        0.0427490656       -0.0373539917
 C         -1.1597984079       -0.7187976765        0.6031145839
 N         -2.5221950174       -0.3381862620        0.4772537381
 C         -3.1716681014        0.2022835687        1.5530494127
 C         -2.5285739173        0.5098459570        2.7622073266
 C         -3.2316354841        1.0260115246        3.8170299356
 C         -4.6283071531        1.2558161618        3.7126802042
 C         -5.2848989616        0.9827233596        2.5378784862
 C         -4.5899985450        0.4716210977        1.4444375809
 O         -5.2570494293        0.2363227068        0.2990847499
 C         -4.5957279570       -0.2525710397       -0.7664958478
 C         -5.3064492066       -0.4949439722       -1.9423069314
 C         -4.6722284719       -1.0153051238       -3.0417598446
 C         -3.2907722667       -1.3279411806       -2.9838370345
 C         -2.5731844029       -1.1105584342       -1.8359002828
 C         -3.1837668568       -0.5570142550       -0.7035228015
 C         -0.8177964648       -1.8328773549        1.3760869414
 C          0.5074117925       -2.1860047293        1.4630396508
 C          1.4895104274       -1.4380115893        0.8166983528
 H          5.8231167788       -1.3949755917        1.3283234022
 H          7.2660587402        0.5452928967        0.6828524290
 H          6.2502676605        2.3996927341       -0.6072647228
 H          3.8857481276        2.3690747870       -1.1764585960
 H          1.3521800805        2.9774852990        0.1203520943
 H          0.5361156202        4.7055751111       -1.4497266938
 H          0.3939664679        4.2085378572       -3.8613299112
 H          1.0661380123        1.9903810058       -4.7058812067
 H          1.8815219017        0.2649849909       -3.1280172528
 H         -0.4947376769        0.9020895222       -0.6089367047
 H         -1.4668335174        0.3345427626        2.8432908939
 H         -2.7243824291        1.2629091235        4.7380661484
 H         -5.1665983091        1.6523821946        4.5573956221
 H         -6.3432885012        1.1600857260        2.4282460824
 H         -6.3596627065       -0.2622977534       -1.9535701136
 H         -5.2218001256       -1.1992596194       -3.9501317261
 H         -2.8061046173       -1.7491987099       -3.8492938640
 H         -1.5264221347       -1.3674954176       -1.7899090948
 H         -1.5871609602       -2.4036287583        1.8711023777
 H          0.8288770895       -3.0474738021        2.0248644279
  56
  -95.3430015562000       0.134832047464628      !
 O          3.2600466458       -2.8641301608       -0.4846548416
 S          3.1536772296       -2.0624787762        0.7169418440
 O          3.5514066552       -2.6997122990        1.9485262311
 C          4.0781416963       -0.5638974315        0.4552888417
 C          5.4102679246       -0.5198490088        0.8170037961
 C          6.1774745930        0.5921348211        0.5182261397
 C          5.5883662020        1.6464490767       -0.1640610893
 C          4.2541293433        1.6106367808       -0.5147748241
 C          3.4560059639        0.5002605983       -0.1959401666
 N          2.1054851725        0.5060124084       -0.5044410310
 C          1.6457195875        1.4867374302       -1.4386842916
 C          1.1539918664        2.7135023241       -1.0076123687
 C          0.7042490747        3.6353046267       -1.9369948489
 C          0.7472454180        3.3374260208       -3.2893620022
 C          1.2422094989        2.1162499023       -3.7163444050
 C          1.6912925014        1.1878530385       -2.7925129156
 C          1.1554116668       -0.2988589695        0.0975083494
 C         -0.1963179565        0.0295026278        0.0144139624
 C         -1.1561498205       -0.7381637483        0.6731106070
 N         -2.5227655816       -0.3735050112        0.5453087122
 C         -3.1844620610        0.1731482581        1.6117274356
 C         -2.5673391218        0.4433709281        2.8420637384
 C         -3.2777360819        0.9915082627        3.8767681289
 C         -4.6538540611        1.3013404937        3.7250728981
 C         -5.2837765682        1.0669850888        2.5279735946
 C         -4.5823527078        0.5146524452        1.4581835947
 O         -5.2237201173        0.3230846676        0.2902384017
 C         -4.5554175984       -0.1943802353       -0.7574048651
 C         -5.2362132814       -0.3857323713       -1.9589169607
 C         -4.5925322183       -0.9274679960       -3.0432114133
 C         -3.2314866385       -1.3123390086       -2.9420354782
 C         -2.5418079476       -1.1395049647       -1.7707545821
 C         -3.1617324024       -0.5663082486       -0.6515797572
 C         -0.7928420892       -1.8472661829        1.4437575350
 C          0.5356604521       -2.1969629914        1.5007812681
 C          1.4990872550       -1.4472095928        0.8304748719
 H          5.8202284909       -1.3771023729        1.3271642133
 H          7.2175170388        0.6315864373        0.7994718107
 H          6.1743851706        2.5165249442       -0.4197709958
 H          3.8183695211        2.4488077788       -1.0357337678
 H          1.1293806502        2.9359542384        0.0494327494
 H          0.3220466269        4.5883540809       -1.6033971995
 H          0.3967710556        4.0595378928       -4.0109914722
 H          1.2791374620        1.8841206251       -4.7697448363
 H          2.0788509290        0.2306352461       -3.1079842755
 H         -0.5248755205        0.8827387301       -0.5569061893
 H         -1.5192163846        0.2140775492        2.9580712724
 H         -2.7904183780        1.1949448996        4.8163656330
 H         -5.1971554236        1.7292489262        4.5511454353
 H         -6.3254641897        1.3056862955        2.3812057446
 H         -6.2749346543       -0.0981502922       -2.0030442100
 H         -5.1190616516       -1.0729622667       -3.9718713898
 H         -2.7403884666       -1.7518751655       -3.7947854438
 H         -1.5109892422       -1.4482587266       -1.6945431561
 H         -1.5492536745       -2.4228146815        1.9530217394
 H          0.8713811418       -3.0612254083        2.0501619815
  56
  -95.3428956305000       0.120534965593462      !
 O          3.3536209237       -2.8267801110       -0.8248766030
 S          3.1528053661       -2.1590075756        0.4441089175
 O          3.4782180525       -2.9253031093        1.6228287005
 C          4.0761402950       -0.6367438740        0.4151300925
 C          5.4094534547       -0.6699248362        0.7751256668
 C          6.1945175184        0.4626618080        0.6577045057
 C          5.6209337614        1.6215313174        0.1554819131
 C          4.2867814564        1.6614023901       -0.1931194448
 C          3.4698928894        0.5267079766       -0.0564076698
 N          2.1217569421        0.6056126833       -0.3630213431
 C          1.6719129726        1.7713117495       -1.0609987519
 C          1.2128617074        2.8847316680       -0.3663740106
 C          0.7748573831        3.9953020493       -1.0665242040
 C          0.7957529263        3.9970179457       -2.4519107596
 C          1.2552827616        2.8868586817       -3.1413787214
 C          1.6931713339        1.7711227592       -2.4480196519
 C          1.1605229761       -0.3088413764        0.0273617062
 C         -0.1910620195        0.0299535786       -0.0421599827
 C         -1.1711290180       -0.8589392110        0.3964710239
 N         -2.5338913581       -0.4601508779        0.3323332143
 C         -3.0174795174        0.4349626372        1.2503340702
 C         -2.2273887818        1.0072639321        2.2557193850
 C         -2.7689130395        1.8830247404        3.1604942064
 C         -4.1466997102        2.2153666799        3.1075035794
 C         -4.9532574648        1.6552483426        2.1493032682
 C         -4.4243375305        0.7688893109        1.2112581144
 O         -5.2490917548        0.2219793203        0.2986746206
 C         -4.7568655482       -0.6416965667       -0.6089350366
 C         -5.6206842393       -1.1977253075       -1.5499352770
 C         -5.1454335541       -2.0673562092       -2.5002518306
 C         -3.7664350589       -2.4011776789       -2.5345699846
 C         -2.8986682023       -1.8779878471       -1.6139194403
 C         -3.3536964892       -0.9974917594       -0.6209220954
 C         -0.8335462446       -2.1127513896        0.9133963060
 C          0.4952657887       -2.4613793398        0.9642138200
 C          1.4819596536       -1.5815706133        0.5243058730
 H          5.8058509755       -1.6039548403        1.1407099622
 H          7.2350205100        0.4402097876        0.9388367028
 H          6.2198097436        2.5123452449        0.0389294218
 H          3.8657932355        2.5790531555       -0.5728729148
 H          1.2033156774        2.8720576686        0.7137819979
 H          0.4173740426        4.8600987770       -0.5282163838
 H          0.4545710854        4.8655641037       -2.9943972993
 H          1.2735927749        2.8872527411       -4.2205635957
 H          2.0531947570        0.8973414546       -2.9704586639
 H         -0.5026964287        0.9855086688       -0.4320427349
 H         -1.1828769638        0.7415978298        2.3094584814
 H         -2.1485820227        2.3180614675        3.9270628909
 H         -4.5564252862        2.9012514345        3.8303838049
 H         -6.0069769335        1.8795711399        2.0956355030
 H         -6.6622837049       -0.9201201050       -1.5086376014
 H         -5.8143343374       -2.4959597567       -3.2279577531
 H         -3.4038733915       -3.0733230515       -3.2951202315
 H         -1.8501134030       -2.1319863738       -1.6397328577
 H         -1.6061560434       -2.7833051489        1.2541323380
 H          0.8156121739       -3.4193716508        1.3395450690
  56
  -95.3428498972000       0.114840606855666      !
 O          3.4454258356       -3.3393264684        0.5115078772
 S          3.1647473962       -1.9937377406        0.9519419710
 O          3.4236759177       -1.7157627203        2.3491358733
 C          4.0854527116       -0.8159928584       -0.0171928695
 C          5.4263287981       -1.0710607254       -0.2313442784
 C          6.2272863202       -0.1346143325       -0.8585265936
 C          5.6616450158        1.0726018827       -1.2422525349
 C          4.3213616720        1.3265899993       -1.0391528442
 C          3.4860900584        0.3720560961       -0.4343744388
 N          2.1338502973        0.6288285126       -0.2858327757
 C          1.6695168788        1.9571332188       -0.5468596276
 C          1.4688638011        2.8192238495        0.5219113080
 C          1.0025754030        4.1020672856        0.2919613272
 C          0.7391764110        4.5235513875       -1.0014270724
 C          0.9392372740        3.6617118794       -2.0672191042
 C          1.4011377308        2.3758374812       -1.8448353507
 C          1.1734812199       -0.2993271175        0.0738975626
 C         -0.1764972875        0.0112992794       -0.0900711124
 C         -1.1702772760       -0.8993307863        0.2678230279
 N         -2.5298066302       -0.5253047712        0.1272350928
 C         -3.0310663143        0.5056498261        0.8839324092
 C         -2.2682327712        1.2270396695        1.8124237012
 C         -2.8233925049        2.2505550418        2.5360641941
 C         -4.1896811943        2.5900188613        2.3769792453
 C         -4.9760485476        1.8762484548        1.5083291029
 C         -4.4331749700        0.8335472171        0.7575905309
 O         -5.2493129150        0.1315730579       -0.0500630558
 C         -4.7483605505       -0.8800241711       -0.7827948284
 C         -5.6073548730       -1.5984368591       -1.6104645776
 C         -5.1238459174       -2.6089891424       -2.4049352093
 C         -3.7378496326       -2.9113687929       -2.4016146105
 C         -2.8751227570       -2.2286376226       -1.5874316705
 C         -3.3413237011       -1.2159824805       -0.7330587529
 C         -0.8392683019       -2.1639347452        0.7706427242
 C          0.4885279334       -2.4814195166        0.9209626558
 C          1.4866140210       -1.5680279199        0.5865961613
 H          5.8163076213       -2.0154309417        0.1142880127
 H          7.2733462166       -0.3322558671       -1.0280747674
 H          6.2730210802        1.8294270035       -1.7105036911
 H          3.9120584811        2.2755985884       -1.3470790440
 H          1.6805333561        2.4760706798        1.5237330136
 H          0.8473736492        4.7725748504        1.1231954613
 H          0.3782288668        5.5251032278       -1.1789123943
 H          0.7342883817        3.9892142073       -3.0753207751
 H          1.5573574882        1.6929524931       -2.6670355376
 H         -0.4752222005        0.9634932487       -0.4983485240
 H         -1.2328690149        0.9627097665        1.9568555214
 H         -2.2197823354        2.7971885512        3.2420593006
 H         -4.6096507281        3.3976032380        2.9534652740
 H         -6.0253950565        2.0934621118        1.3861090299
 H         -6.6523192691       -1.3304663066       -1.6108216394
 H         -5.7894771070       -3.1655813302       -3.0434190983
 H         -3.3643229061       -3.6855992281       -3.0518532701
 H         -1.8210720986       -2.4585644578       -1.5941561317
 H         -1.6183866103       -2.8561914982        1.0469997833
 H          0.8006725020       -3.4363033997        1.3108861364
  56
  -95.3426599177000       9.392624181473844E-002 !
 O          3.2883170280       -2.9384774474       -0.4695849550
 S          3.1408015458       -2.0939249011        0.6973769230
 O          3.4944454578       -2.6901527257        1.9629866965
 C          4.0838885920       -0.6091221067        0.4227371321
 C          5.4265099266       -0.6141013005        0.7479356679
 C          6.2222188543        0.4779482339        0.4531114663
 C          5.6482869676        1.5656011492       -0.1883151936
 C          4.3053790688        1.5782094241       -0.5043009226
 C          3.4786008572        0.4863200875       -0.1914481594
 N          2.1240967910        0.5404838190       -0.4767480708
 C          1.6697549148        1.6207973054       -1.2984655143
 C          1.2560306454        2.8197361494       -0.7294762365
 C          0.8182558911        3.8490814303       -1.5444765017
 C          0.7934849551        3.6843330937       -2.9199372737
 C          1.2062834864        2.4886446287       -3.4841316924
 C          1.6444084871        1.4535929527       -2.6751712299
 C          1.1619180783       -0.2947037801        0.0607742694
 C         -0.1888702673        0.0413441282       -0.0400232400
 C         -1.1650096172       -0.7564377819        0.5537776063
 N         -2.5303710599       -0.3736953512        0.4362245380
 C         -3.1329869837        0.2913753974        1.4678763671
 C         -2.4458219578        0.6991523603        2.6201706194
 C         -3.1026147579        1.3429013920        3.6347192488
 C         -4.4954879354        1.6006085941        3.5444921701
 C         -5.1968247396        1.2182493206        2.4280035250
 C         -4.5494952444        0.5749543904        1.3749612064
 O         -5.2611694506        0.2202845679        0.2886028623
 C         -4.6467976340       -0.4025901216       -0.7345210306
 C         -5.3991928285       -0.7705589146       -1.8495518003
 C         -4.8059299740       -1.4183195306       -2.9036963865
 C         -3.4224315435       -1.7288757294       -2.8625543342
 C         -2.6635570328       -1.3891297241       -1.7731422023
 C         -3.2351549833       -0.7151271461       -0.6862366744
 C         -0.8261985709       -1.9070455201        1.2704276791
 C          0.4999054184       -2.2619099811        1.3446432297
 C          1.4827203439       -1.4784772400        0.7436429903
 H          5.8208867824       -1.4946862271        1.2296978899
 H          7.2701925499        0.4772003587        0.7058760347
 H          6.2540705934        2.4225231629       -0.4421984446
 H          3.8862128336        2.4418217366       -0.9961779512
 H          1.2823440622        2.9360711010        0.3441995616
 H          0.4978132618        4.7810157871       -1.1037301312
 H          0.4528759819        4.4898352437       -3.5525327005
 H          1.1877752659        2.3593008546       -4.5554873856
 H          1.9695025199        0.5153931175       -3.0994191170
 H         -0.5014705122        0.9248310704       -0.5729905467
 H         -1.3880621957        0.4957577547        2.6903261161
 H         -2.5626816205        1.6564091384        4.5132610475
 H         -4.9971040202        2.0992062540        4.3572119785
 H         -6.2548724927        1.4062439894        2.3340595819
 H         -6.4508349999       -0.5304052109       -1.8529062582
 H         -5.3882415948       -1.7001234078       -3.7653628143
 H         -2.9702571276       -2.2427060358       -3.6949924684
 H         -1.6140572983       -1.6375928352       -1.7352676480
 H         -1.5967378076       -2.5027190715        1.7330758393
 H          0.8210582488       -3.1514203500        1.8612083045
  56
  -95.3423206075000       6.559198505256612E-002 !
 O          3.3623743622       -2.9749111004       -0.0305704295
 S          3.1833077923       -1.9604071203        0.9870825629
 O          3.5378377336       -2.3421445763        2.3331489721
 C          4.1014688333       -0.5195898337        0.4805799585
 C          5.4530210670       -0.4816891526        0.7638514264
 C          6.2448758202        0.5371606345        0.2669729213
 C          5.6597591357        1.4982799893       -0.5441425657
 C          4.3085993967        1.4698011746       -0.8200023843
 C          3.4829458699        0.4649967873       -0.2895634972
 N          2.1196349737        0.4862300880       -0.5274303406
 C          1.6137002575        1.3817925006       -1.5215335899
 C          1.4039517674        2.7257095214       -1.2348542233
 C          0.8872360075        3.5608788555       -2.2102115408
 C          0.5737565999        3.0587722883       -3.4622532850
 C          0.7798390144        1.7179446600       -3.7443456926
 C          1.3006655736        0.8776529614       -2.7759258915
 C          1.1783407536       -0.2749860374        0.1422938361
 C         -0.1687468793        0.0736898994        0.0575881309
 C         -1.1469172854       -0.6787912505        0.7073374350
 N         -2.5061141622       -0.3117777949        0.5538935393
 C         -3.2411109711        0.0615235566        1.6487610945
 C         -2.6963537715        0.1923387164        2.9361276051
 C         -3.4853575708        0.5376060495        4.0003243688
 C         -4.8715821145        0.7796777666        3.8261674012
 C         -5.4285808340        0.7027952149        2.5735015505
 C         -4.6449906062        0.3641234808        1.4729168233
 O         -5.2152640884        0.3467558133        0.2542269842
 C         -4.4726782695        0.0242014888       -0.8208309123
 C         -5.0832059878        0.0216999700       -2.0739195120
 C         -4.3750933073       -0.3420245427       -3.1916261086
 C         -3.0233268916       -0.7485550211       -3.0705251205
 C         -2.4022037416       -0.7567398871       -1.8493777985
 C         -3.0803406012       -0.3436737413       -0.6933686823
 C         -0.7973546958       -1.7863186092        1.4908719434
 C          0.5306835143       -2.1216391851        1.5965628956
 C          1.5108331413       -1.3867835854        0.9322811287
 H          5.8585065045       -1.2745269447        1.3722822132
 H          7.2993474639        0.5704031311        0.4883938890
 H          6.2646615901        2.2850497597       -0.9690606281
 H          3.8834749937        2.2291447403       -1.4566190939
 H          1.6455074469        3.1043708711       -0.2526385308
 H          0.7272721480        4.6054200546       -1.9894149072
 H          0.1675927586        3.7125640996       -4.2185465737
 H          0.5357161466        1.3251186843       -4.7192010136
 H          1.4674112224       -0.1695392471       -2.9799933904
 H         -0.4778767847        0.9350189790       -0.5126303892
 H         -1.6406072347        0.0199043400        3.0747422060
 H         -3.0515429531        0.6322028941        4.9822776726
 H         -5.4788668069        1.0385055361        4.6774520755
 H         -6.4744399448        0.9073603922        2.4063922232
 H         -6.1200725794        0.3111301753       -2.1300775528
 H         -4.8479226530       -0.3424405142       -4.1598912750
 H         -2.4843284651       -1.0658132017       -3.9482310342
 H         -1.3802532312       -1.0895774464       -1.7662310240
 H         -1.5637488856       -2.3634309249        1.9833365546
 H          0.8556064071       -2.9631779553        2.1861683040
  56
  -95.3420777514000       5.072731065004494E-002 !
 O          3.4950572188       -3.0543821214        1.2775582530
 S          3.2000004521       -1.6511092077        1.4498105143
 O          3.4542537073       -1.1082253404        2.7673829846
 C          4.1105372545       -0.6929470773        0.2546462225
 C          5.4698314402       -0.9255421916        0.1673466552
 C          6.2545973189       -0.1950069565       -0.7056725816
 C          5.6471931298        0.7752182501       -1.4894823323
 C          4.2903258880        1.0057599688       -1.4098744342
 C          3.4774387493        0.2720144724       -0.5273349146
 N          2.1163669696        0.5209060460       -0.4822454485
 C          1.6106058443        1.5530392149       -1.3362434356
 C          1.6108987808        2.8713474457       -0.9024006750
 C          1.1080105083        3.8634714723       -1.7276526493
 C          0.6020068676        3.5405507246       -2.9755446293
 C          0.6013584175        2.2233728148       -3.4061026102
 C          1.1075079680        1.2275032959       -2.5896985184
 C          1.1782236164       -0.2340868051        0.1974174034
 C         -0.1770345600        0.0699930138        0.0661861784
 C         -1.1546092928       -0.7239416649        0.6628609737
 N         -2.5180193259       -0.3919780510        0.4687255939
 C         -3.3016051103       -0.0686436250        1.5459119697
 C         -2.8094105713        0.0298752233        2.8569548119
 C         -3.6457818288        0.3261032290        3.8998990677
 C         -5.0282127564        0.5509007506        3.6787655443
 C         -5.5343077502        0.5072888745        2.4032884220
 C         -4.7024091531        0.2172708217        1.3239733895
 O         -5.2239791020        0.2354601343        0.0836934070
 C         -4.4362655798       -0.0438696457       -0.9711106722
 C         -4.9955387169       -0.0115211286       -2.2474906495
 C         -4.2400549997       -0.3355623518       -3.3465154191
 C         -2.8904953159       -0.7375758823       -3.1828134121
 C         -2.3186660491       -0.7762878738       -1.9385277517
 C         -3.0452741117       -0.4011356276       -0.7987888460
 C         -0.8021804068       -1.8456222831        1.4251286090
 C          0.5321492545       -2.1174993391        1.6052308205
 C          1.5147148321       -1.3261838076        1.0151271885
 H          5.8857151247       -1.6929300065        0.8010134531
 H          7.3151830259       -0.3751842528       -0.7732975061
 H          6.2384772061        1.3603583396       -2.1778334253
 H          3.8469050035        1.7614093784       -2.0387801892
 H          2.0069389250        3.1081243559        0.0736843906
 H          1.1101773428        4.8894218419       -1.3923463817
 H          0.2082085849        4.3159071390       -3.6147046761
 H          0.2076511691        1.9700629762       -4.3784325613
 H          1.1157207594        0.1972096254       -2.9133074987
 H         -0.4946155000        0.9290615685       -0.5025478053
 H         -1.7570843892       -0.1292102105        3.0321972218
 H         -3.2518861346        0.3954184677        4.9007579878
 H         -5.6726664938        0.7719332574        4.5132434069
 H         -6.5760129207        0.7013720920        2.2012070747
 H         -6.0336486408        0.2676094150       -2.3369382004
 H         -4.6723729168       -0.3065627823       -4.3328767122
 H         -2.3154770194       -1.0260860700       -4.0476541807
 H         -1.2981667023       -1.1043859758       -1.8212915542
 H         -1.5680707360       -2.4686159433        1.8581343711
 H          0.8620446345       -2.9522658099        2.2018651200
  56
  -95.3418574945000       4.018081816968842E-002 !
 O          3.4826964969       -3.1083328529        0.8348399885
 S          3.2044624297       -1.7765043398        1.3230570490
 O          3.4753387138       -1.5490441076        2.7251028668
 C          4.1220145466       -0.6001078988        0.3466368590
 C          5.4992250327       -0.7075637212        0.3888125145
 C          6.2957899727        0.1391045126       -0.3591218054
 C          5.6813494987        1.0903781208       -1.1608619841
 C          4.3082081513        1.2003935965       -1.2063116496
 C          3.4834767171        0.3573434112       -0.4399968529
 N          2.1091222995        0.5061195849       -0.4994960604
 C          1.5844392024        1.4620749171       -1.4277323308
 C          1.4727108233        2.7996507764       -1.0701365268
 C          0.9403272797        3.7062313335       -1.9712526390
 C          0.5158312462        3.2805276470       -3.2188707290
 C          0.6278263014        1.9454233065       -3.5730656209
 C          1.1638119846        1.0343549872       -2.6800514872
 C          1.1783643631       -0.2593923954        0.1783561898
 C         -0.1765471854        0.0536986832        0.0632412784
 C         -1.1534897689       -0.7308368898        0.6720866115
 N         -2.5147817165       -0.3811602911        0.4990186566
 C         -3.2787144619       -0.0532055731        1.5901183196
 C         -2.7718433028        0.0127479619        2.8971293489
 C         -3.5890986652        0.3189233748        3.9527642292
 C         -4.9652627641        0.5904600033        3.7482300453
 C         -5.4833523715        0.5829556737        2.4770833511
 C         -4.6709075740        0.2814041096        1.3857094928
 O         -5.2024244170        0.3408609675        0.1509067025
 C         -4.4343063647        0.0538023535       -0.9162528851
 C         -5.0011412958        0.1341133574       -2.1866361800
 C         -4.2668565686       -0.1960973215       -3.2984367944
 C         -2.9327218975       -0.6536467569       -3.1535084305
 C         -2.3523546110       -0.7370319806       -1.9158996035
 C         -3.0553116537       -0.3560275621       -0.7623357440
 C         -0.7996459815       -1.8535349211        1.4328884816
 C          0.5346160706       -2.1389967459        1.5903107870
 C          1.5164443029       -1.3581424003        0.9849940757
 H          5.9196057588       -1.4738695527        1.0208127617
 H          7.3699358423        0.0568057573       -0.3242221621
 H          6.2807142114        1.7572997963       -1.7621692854
 H          3.8603956937        1.9457980764       -1.8442110692
 H          1.8043980740        3.1173875298       -0.0928924384
 H          0.8542162564        4.7461772699       -1.6951155935
 H          0.0968564089        3.9894301158       -3.9165249463
 H          0.2982081901        1.6121969442       -4.5450788283
 H          1.2578647079       -0.0090941543       -2.9421827821
 H         -0.4934357720        0.9154476651       -0.5018415909
 H         -1.7233561741       -0.1797074247        3.0611766720
 H         -3.1836230386        0.3610013906        4.9504741479
 H         -5.5947294127        0.8197210998        4.5918454572
 H         -6.5194610834        0.8151204680        2.2871635853
 H         -6.0284026934        0.4544101453       -2.2619767732
 H         -4.7051004464       -0.1303140512       -4.2803039139
 H         -2.3763749656       -0.9479263501       -4.0283881809
 H         -1.3436643776       -1.1044748479       -1.8142999714
 H         -1.5641202605       -2.4704925751        1.8769025479
 H          0.8648625691       -2.9789168374        2.1795803192
  56
  -95.3416664625000       3.282664866517374E-002 !
 O          3.3866762026       -3.0227140493        0.2255628845
 S          3.1993004048       -1.8936184452        1.1120654233
 O          3.5522267754       -2.1100754006        2.4953703609
 C          4.1176528242       -0.5157744583        0.4504159794
 C          5.4849817709       -0.5113163925        0.6493694847
 C          6.2767921764        0.4592165474        0.0640391501
 C          5.6724487620        1.4131201779       -0.7421654085
 C          4.3074572131        1.4168150404       -0.9367790235
 C          3.4856815691        0.4538782151       -0.3271043216
 N          2.1148098689        0.5048767221       -0.5057358192
 C          1.5943751688        1.3470715616       -1.5394134444
 C          1.3620516634        2.6989662732       -1.3152454122
 C          0.8209511898        3.4760603328       -2.3252018434
 C          0.5081253924        2.9091270618       -3.5494742671
 C          0.7420657823        1.5612129002       -3.7708608516
 C          1.2857774375        0.7787432230       -2.7677178356
 C          1.1828213590       -0.2460996989        0.1876022628
 C         -0.1658420416        0.0962464872        0.0997232107
 C         -1.1459123112       -0.6640128175        0.7370936900
 N         -2.5044749105       -0.3077815489        0.5686373438
 C         -3.2771310166       -0.0146853774        1.6639982520
 C         -2.7740429230        0.0440968986        2.9737241232
 C         -3.6029443033        0.2956288011        4.0343128138
 C         -4.9888445328        0.5160514604        3.8347493925
 C         -5.5036988329        0.5242014131        2.5618918119
 C         -4.6783176829        0.2840579693        1.4656691501
 O         -5.2066917164        0.3694002965        0.2310832780
 C         -4.4256221049        0.1409217829       -0.8407700094
 C         -4.9888060362        0.2618780206       -2.1099286154
 C         -4.2463812481       -0.0172231299       -3.2302751153
 C         -2.9107946035       -0.4707964882       -3.0952327661
 C         -2.3350883902       -0.5953511809       -1.8584932248
 C         -3.0423379469       -0.2544936575       -0.6948707307
 C         -0.7924087191       -1.7736800491        1.5180210788
 C          0.5383335972       -2.0887602554        1.6453848480
 C          1.5200090925       -1.3444578165        0.9937569996
 H          5.9024471591       -1.2911694453        1.2664846857
 H          7.3435176448        0.4643203547        0.2193242823
 H          6.2732440547        2.1686398202       -1.2258484519
 H          3.8651312690        2.1693178493       -1.5702414481
 H          1.6030003456        3.1285225438       -0.3539348715
 H          0.6401730921        4.5262559536       -2.1524786433
 H          0.0820652171        3.5176917475       -4.3322730629
 H          0.5012441402        1.1182484935       -4.7250152134
 H          1.4721100182       -0.2737026816       -2.9232854195
 H         -0.4742791769        0.9594835243       -0.4676820981
 H         -1.7188192941       -0.1096207742        3.1354809028
 H         -3.1995914931        0.3334807036        5.0331159798
 H         -5.6280735872        0.6980038656        4.6825495767
 H         -6.5468964080        0.7248534339        2.3747605004
 H         -6.0196280147        0.5724982694       -2.1766773359
 H         -4.6802601483        0.0833894017       -4.2111853364
 H         -2.3476384779       -0.7309737677       -3.9766193784
 H         -1.3256111299       -0.9631388045       -1.7699591417
 H         -1.5574418143       -2.3691884719        1.9897170184
 H          0.8642099935       -2.9284023849        2.2373023885
